@<TRIPOS>MOLECULE
*****
 43 48 0 0 0
SMALL
GASTEIGER

@<TRIPOS>ATOM
      1 C         142.3736  143.1958  160.5348 C.2     1  UNL1        0.2494
      2 O         142.5015  143.7431  161.9255 O.2     1  UNL1       -0.2699
      3 N         142.7565  141.7736  160.2503 N.am    1  UNL1       -0.2674
      4 C         142.6832  141.0907  158.9168 C.3     1  UNL1        0.1185
      5 C         143.1612  139.6796  159.0918 C.3     1  UNL1        0.1288
      6 C         143.5299  139.4905  160.5335 C.3     1  UNL1        0.0554
      7 C         143.2798  140.7847  161.2494 C.3     1  UNL1        0.1540
      8 C         140.8416  145.8202  157.2159 C.ar    1  UNL1       -0.0066
      9 C         142.1606  145.1208  157.0709 C.ar    1  UNL1       -0.0028
     10 C         142.6713  144.2460  158.1771 C.ar    1  UNL1        0.0042
     11 C         141.8630  144.0706  159.4285 C.ar    1  UNL1        0.0536
     12 C         140.5439  144.7700  159.5735 C.ar    1  UNL1        0.0042
     13 C         140.0333  145.6448  158.4671 C.ar    1  UNL1       -0.0028
     14 N         139.3010  147.7463  156.3993 N.3     1  UNL1       -0.3175
     15 C         140.3309  146.6951  156.1095 C.3     1  UNL1        0.0922
     16 H         139.0707  148.2431  155.5387 H       1  UNL1        0.1192
     17 H         139.6713  148.4056  157.0838 H       1  UNL1        0.1192
     18 N         143.2543  138.6402  158.0143 N.ar    1  UNL1       -0.2307
     19 C         142.6728  137.2586  158.0695 C.ar    1  UNL1        0.1131
     20 C         143.0043  136.5645  156.7818 C.ar    1  UNL1        0.1005
     21 N         143.7905  137.5171  155.9307 N.ar    1  UNL1       -0.1332
     22 N         143.9450  138.8000  156.6925 N.ar    1  UNL1       -0.0641
     23 C         142.6174  135.1636  156.4104 C.3     1  UNL1        0.0437
     24 C         141.8282  134.2174  155.5549 C.3     1  UNL1        0.0064
     25 C         142.7364  133.6835  156.6226 C.3     1  UNL1        0.0064
     26 C         143.5121  141.0444  162.7084 C.2     1  UNL1        0.2407
     27 O         144.9094  141.0642  163.2535 O.2     1  UNL1       -0.2733
     28 N         142.3470  141.2842  163.6223 N.am    1  UNL1       -0.3023
     29 H         141.4299  141.2712  163.2645 H       1  UNL1        0.1495
     30 C         142.5793  141.5439  165.0813 C.3     1  UNL1        0.0981
     31 C         141.5448  142.2720  165.8874 C.3     1  UNL1        0.0641
     32 C         141.7460  142.4721  167.3603 C.ar    1  UNL1       -0.0168
     33 C         140.6103  142.9528  168.2140 C.ar    1  UNL1       -0.0039
     34 C         140.8116  143.1529  169.6869 C.ar    1  UNL1       -0.0003
     35 C         142.1487  142.8723  170.3062 C.ar    1  UNL1       -0.0000
     36 C         143.2845  142.3915  169.4524 C.ar    1  UNL1       -0.0003
     37 C         143.0832  142.1914  167.9795 C.ar    1  UNL1       -0.0039
     38 C         140.3092  142.7998  165.2207 C.ar    1  UNL1       -0.0168
     39 C         140.2897  144.1972  164.6757 C.ar    1  UNL1       -0.0039
     40 C         139.0541  144.7251  164.0090 C.ar    1  UNL1       -0.0003
     41 C         137.8379  143.8556  163.8872 C.ar    1  UNL1       -0.0000
     42 C         137.8574  142.4582  164.4322 C.ar    1  UNL1       -0.0003
     43 C         139.0930  141.9303  165.0989 C.ar    1  UNL1       -0.0039
@<TRIPOS>BOND
     1    14    15    1
     2    15     8    1
     3     8     9   ar
     4     9    10   ar
     5    10    11   ar
     6    11     1    1
     7     1     2    2
     8     1     3   am
     9     3     4    1
    10     4     5    1
    11     5    18    1
    12    18    19   ar
    13    19    20   ar
    14    20    23    1
    15    23    24    1
    16    24    25    1
    17    20    21   ar
    18    21    22   ar
    19     5     6    1
    20     6     7    1
    21     7    26    1
    22    26    27    2
    23    26    28   am
    24    28    30    1
    25    30    31    1
    26    31    32    1
    27    32    33   ar
    28    33    34   ar
    29    34    35   ar
    30    35    36   ar
    31    36    37   ar
    32    31    38    1
    33    38    39   ar
    34    39    40   ar
    35    40    41   ar
    36    41    42   ar
    37    42    43   ar
    38    11    12   ar
    39    12    13   ar
    40    13     8   ar
    41     7     3    1
    42    37    32   ar
    43    43    38   ar
    44    22    18   ar
    45    25    23    1
    46    14    16    1
    47    14    17    1
    48    28    29    1
@<TRIPOS>MOLECULE
*****
 43 48 0 0 0
SMALL
GASTEIGER

@<TRIPOS>ATOM
      1 C         140.8225  142.6276  160.1600 C.2     1  UNL1        0.2494
      2 O         140.4920  143.1023  161.5440 O.2     1  UNL1       -0.2699
      3 N         142.2548  142.4916  159.7358 N.am    1  UNL1       -0.2674
      4 C         142.7365  142.0317  158.3917 C.3     1  UNL1        0.1185
      5 C         144.2364  142.0474  158.4064 C.3     1  UNL1        0.1288
      6 C         144.6817  142.5170  159.7597 C.3     1  UNL1        0.0554
      7 C         143.4571  142.7915  160.5813 C.3     1  UNL1        0.1540
      8 C         137.5171  141.6118  157.2804 C.ar    1  UNL1       -0.0066
      9 C         138.2114  142.9381  157.1875 C.ar    1  UNL1       -0.0028
     10 C         139.3132  143.2768  158.1473 C.ar    1  UNL1        0.0042
     11 C         139.7208  142.2890  159.2001 C.ar    1  UNL1        0.0536
     12 C         139.0264  140.9626  159.2930 C.ar    1  UNL1        0.0042
     13 C         137.9246  140.6240  158.3331 C.ar    1  UNL1       -0.0028
     14 N         135.3455  140.3004  156.7195 N.3     1  UNL1       -0.3175
     15 C         136.4152  141.2732  156.3205 C.3     1  UNL1        0.0922
     16 H         134.6833  140.1893  155.9517 H       1  UNL1        0.1192
     17 H         134.8560  140.6520  157.5424 H       1  UNL1        0.1192
     18 N         145.1334  141.6614  157.2679 N.ar    1  UNL1       -0.2307
     19 C         146.4703  142.2653  156.9549 C.ar    1  UNL1        0.1131
     20 C         147.0142  141.5807  155.7360 C.ar    1  UNL1        0.1005
     21 N         146.0134  140.5538  155.2958 N.ar    1  UNL1       -0.1332
     22 N         144.8510  140.6036  156.2426 N.ar    1  UNL1       -0.0641
     23 C         148.3281  141.8721  155.0737 C.3     1  UNL1        0.0437
     24 C         149.8252  141.7794  155.0608 C.3     1  UNL1        0.0064
     25 C         149.1069  142.4694  153.9394 C.3     1  UNL1        0.0064
     26 C         143.4380  143.2801  161.9993 C.2     1  UNL1        0.2407
     27 O         143.7134  144.7238  162.2990 O.2     1  UNL1       -0.2733
     28 N         143.1434  142.3249  163.1178 N.am    1  UNL1       -0.3023
     29 H         142.9626  141.3774  162.9211 H       1  UNL1        0.1495
     30 C         143.1242  142.8135  164.5359 C.3     1  UNL1        0.0981
     31 C         141.9866  142.4441  165.4410 C.3     1  UNL1        0.0641
     32 C         140.5890  142.8696  165.1008 C.ar    1  UNL1       -0.0168
     33 C         140.2797  144.3204  164.8789 C.ar    1  UNL1       -0.0039
     34 C         138.8821  144.7458  164.5386 C.ar    1  UNL1       -0.0003
     35 C         137.7937  143.7203  164.4204 C.ar    1  UNL1       -0.0000
     36 C         138.1030  142.2694  164.6424 C.ar    1  UNL1       -0.0003
     37 C         139.5007  141.8440  164.9826 C.ar    1  UNL1       -0.0039
     38 C         142.2465  141.6494  166.6864 C.ar    1  UNL1       -0.0168
     39 C         142.3489  142.3442  168.0118 C.ar    1  UNL1       -0.0039
     40 C         142.6088  141.5495  169.2571 C.ar    1  UNL1       -0.0003
     41 C         142.7664  140.0600  169.1770 C.ar    1  UNL1       -0.0000
     42 C         142.6641  139.3652  167.8516 C.ar    1  UNL1       -0.0003
     43 C         142.4041  140.1599  166.6063 C.ar    1  UNL1       -0.0039
@<TRIPOS>BOND
     1    14    15    1
     2    15     8    1
     3     8     9   ar
     4     9    10   ar
     5    10    11   ar
     6    11     1    1
     7     1     2    2
     8     1     3   am
     9     3     4    1
    10     4     5    1
    11     5    18    1
    12    18    19   ar
    13    19    20   ar
    14    20    23    1
    15    23    24    1
    16    24    25    1
    17    20    21   ar
    18    21    22   ar
    19     5     6    1
    20     6     7    1
    21     7    26    1
    22    26    27    2
    23    26    28   am
    24    28    30    1
    25    30    31    1
    26    31    32    1
    27    32    33   ar
    28    33    34   ar
    29    34    35   ar
    30    35    36   ar
    31    36    37   ar
    32    31    38    1
    33    38    39   ar
    34    39    40   ar
    35    40    41   ar
    36    41    42   ar
    37    42    43   ar
    38    11    12   ar
    39    12    13   ar
    40    13     8   ar
    41     7     3    1
    42    37    32   ar
    43    43    38   ar
    44    22    18   ar
    45    25    23    1
    46    14    16    1
    47    14    17    1
    48    28    29    1
@<TRIPOS>MOLECULE
*****
 43 48 0 0 0
SMALL
GASTEIGER

@<TRIPOS>ATOM
      1 C         142.3215  143.0321  160.6285 C.2     1  UNL1        0.2494
      2 O         142.4181  143.5451  162.0348 O.2     1  UNL1       -0.2699
      3 N         142.6946  141.6122  160.3208 N.am    1  UNL1       -0.2674
      4 C         142.6494  140.9616  158.9700 C.3     1  UNL1        0.1185
      5 C         143.1054  139.5409  159.1243 C.3     1  UNL1        0.1288
      6 C         143.4325  139.3135  160.5705 C.3     1  UNL1        0.0554
      7 C         143.1786  140.5936  161.3100 C.3     1  UNL1        0.1540
      8 C         140.9121  145.7527  157.3328 C.ar    1  UNL1       -0.0066
      9 C         142.2113  145.0161  157.1932 C.ar    1  UNL1       -0.0028
     10 C         142.6811  144.1092  158.2917 C.ar    1  UNL1        0.0042
     11 C         141.8517  143.9389  159.5300 C.ar    1  UNL1        0.0536
     12 C         140.5525  144.6755  159.6696 C.ar    1  UNL1        0.0042
     13 C         140.0827  145.5824  158.5709 C.ar    1  UNL1       -0.0028
     14 N         138.9756  146.7999  155.9531 N.3     1  UNL1       -0.3175
     15 C         140.4423  146.6596  156.2341 C.3     1  UNL1        0.0922
     16 H         138.8383  147.4511  155.1802 H       1  UNL1        0.1192
     17 H         138.5025  147.1543  156.7844 H       1  UNL1        0.1192
     18 N         143.2151  138.5259  158.0254 N.ar    1  UNL1       -0.2307
     19 C         142.6288  137.1453  158.0386 C.ar    1  UNL1        0.1131
     20 C         142.9817  136.4794  156.7417 C.ar    1  UNL1        0.1005
     21 N         143.7862  137.4484  155.9270 N.ar    1  UNL1       -0.1332
     22 N         143.9305  138.7132  156.7203 N.ar    1  UNL1       -0.0641
     23 C         142.5976  135.0887  156.3316 C.3     1  UNL1        0.0437
     24 C         142.7015  133.6038  156.5178 C.3     1  UNL1        0.0064
     25 C         141.8282  134.1645  155.4348 C.3     1  UNL1        0.0064
     26 C         143.3743  140.8162  162.7804 C.2     1  UNL1        0.2407
     27 O         144.7565  140.8068  163.3630 O.2     1  UNL1       -0.2733
     28 N         142.1877  141.0481  163.6683 N.am    1  UNL1       -0.3023
     29 H         141.2805  141.0542  163.2859 H       1  UNL1        0.1495
     30 C         142.3833  141.2706  165.1387 C.3     1  UNL1        0.0981
     31 C         141.4260  142.1392  165.8997 C.3     1  UNL1        0.0641
     32 C         140.2270  142.7181  165.2088 C.ar    1  UNL1       -0.0168
     33 C         138.9835  141.8948  165.0485 C.ar    1  UNL1       -0.0039
     34 C         137.7845  142.4737  164.3576 C.ar    1  UNL1       -0.0003
     35 C         137.8291  143.8760  163.8269 C.ar    1  UNL1       -0.0000
     36 C         139.0727  144.6994  163.9871 C.ar    1  UNL1       -0.0003
     37 C         140.2717  144.1204  164.6781 C.ar    1  UNL1       -0.0039
     38 C         141.6676  142.4290  167.3514 C.ar    1  UNL1       -0.0168
     39 C         140.5556  142.9627  168.2050 C.ar    1  UNL1       -0.0039
     40 C         140.7973  143.2524  169.6567 C.ar    1  UNL1       -0.0003
     41 C         142.1510  143.0084  170.2550 C.ar    1  UNL1       -0.0000
     42 C         143.2630  142.4747  169.4014 C.ar    1  UNL1       -0.0003
     43 C         143.0213  142.1850  167.9497 C.ar    1  UNL1       -0.0039
@<TRIPOS>BOND
     1    14    15    1
     2    15     8    1
     3     8     9   ar
     4     9    10   ar
     5    10    11   ar
     6    11     1    1
     7     1     2    2
     8     1     3   am
     9     3     4    1
    10     4     5    1
    11     5    18    1
    12    18    19   ar
    13    19    20   ar
    14    20    23    1
    15    23    24    1
    16    24    25    1
    17    20    21   ar
    18    21    22   ar
    19     5     6    1
    20     6     7    1
    21     7    26    1
    22    26    27    2
    23    26    28   am
    24    28    30    1
    25    30    31    1
    26    31    32    1
    27    32    33   ar
    28    33    34   ar
    29    34    35   ar
    30    35    36   ar
    31    36    37   ar
    32    31    38    1
    33    38    39   ar
    34    39    40   ar
    35    40    41   ar
    36    41    42   ar
    37    42    43   ar
    38    11    12   ar
    39    12    13   ar
    40    13     8   ar
    41     7     3    1
    42    37    32   ar
    43    43    38   ar
    44    22    18   ar
    45    25    23    1
    46    14    16    1
    47    14    17    1
    48    28    29    1
@<TRIPOS>MOLECULE
*****
 43 48 0 0 0
SMALL
GASTEIGER

@<TRIPOS>ATOM
      1 C         140.8496  142.5998  160.2137 C.2     1  UNL1        0.2494
      2 O         140.5242  143.0747  161.5989 O.2     1  UNL1       -0.2699
      3 N         142.2799  142.4853  159.7768 N.am    1  UNL1       -0.2674
      4 C         142.7565  142.0278  158.4301 C.3     1  UNL1        0.1185
      5 C         144.2561  142.0679  158.4307 C.3     1  UNL1        0.1288
      6 C         144.7062  142.5503  159.7779 C.3     1  UNL1        0.0554
      7 C         143.4849  142.8082  160.6098 C.3     1  UNL1        0.1540
      8 C         137.5346  141.5184  157.3692 C.ar    1  UNL1       -0.0066
      9 C         138.1761  142.8722  157.2935 C.ar    1  UNL1       -0.0028
     10 C         139.2811  143.2327  158.2416 C.ar    1  UNL1        0.0042
     11 C         139.7446  142.2393  159.2656 C.ar    1  UNL1        0.0536
     12 C         139.1032  140.8855  159.3413 C.ar    1  UNL1        0.0042
     13 C         137.9981  140.5251  158.3931 C.ar    1  UNL1       -0.0028
     14 N         135.3359  140.2307  156.8615 N.3     1  UNL1       -0.3175
     15 C         136.4296  141.1580  156.4210 C.3     1  UNL1        0.0922
     16 H         134.6748  140.0970  156.0963 H       1  UNL1        0.1192
     17 H         134.8510  140.6337  157.6633 H       1  UNL1        0.1192
     18 N         145.1487  141.6918  157.2854 N.ar    1  UNL1       -0.2307
     19 C         146.5178  142.2427  157.0169 C.ar    1  UNL1        0.1131
     20 C         147.0441  141.5901  155.7731 C.ar    1  UNL1        0.1005
     21 N         146.0003  140.6360  155.2729 N.ar    1  UNL1       -0.1332
     22 N         144.8288  140.6989  156.2076 N.ar    1  UNL1       -0.0641
     23 C         148.3798  141.8467  155.1405 C.3     1  UNL1        0.0437
     24 C         149.1959  142.3601  153.9913 C.3     1  UNL1        0.0064
     25 C         149.8772  141.7776  155.1940 C.3     1  UNL1        0.0064
     26 C         143.4710  143.3023  162.0260 C.2     1  UNL1        0.2407
     27 O         143.8439  144.7234  162.3283 O.2     1  UNL1       -0.2733
     28 N         143.0841  142.3752  163.1400 N.am    1  UNL1       -0.3023
     29 H         142.8393  141.4425  162.9416 H       1  UNL1        0.1495
     30 C         143.0701  142.8692  164.5562 C.3     1  UNL1        0.0981
     31 C         141.9546  142.4733  165.4776 C.3     1  UNL1        0.0641
     32 C         142.2549  141.7127  166.7351 C.ar    1  UNL1       -0.0168
     33 C         142.1561  140.2160  166.7480 C.ar    1  UNL1       -0.0039
     34 C         142.4564  139.4554  168.0055 C.ar    1  UNL1       -0.0003
     35 C         142.8555  140.1914  169.2501 C.ar    1  UNL1       -0.0000
     36 C         142.9542  141.6881  169.2372 C.ar    1  UNL1       -0.0003
     37 C         142.6539  142.4488  167.9796 C.ar    1  UNL1       -0.0039
     38 C         140.5390  142.8381  165.1416 C.ar    1  UNL1       -0.0168
     39 C         140.1085  144.2748  165.1666 C.ar    1  UNL1       -0.0039
     40 C         138.6929  144.6395  164.8305 C.ar    1  UNL1       -0.0003
     41 C         137.7077  143.5676  164.4695 C.ar    1  UNL1       -0.0000
     42 C         138.1382  142.1309  164.4445 C.ar    1  UNL1       -0.0003
     43 C         139.5538  141.7661  164.7806 C.ar    1  UNL1       -0.0039
@<TRIPOS>BOND
     1    14    15    1
     2    15     8    1
     3     8     9   ar
     4     9    10   ar
     5    10    11   ar
     6    11     1    1
     7     1     2    2
     8     1     3   am
     9     3     4    1
    10     4     5    1
    11     5    18    1
    12    18    19   ar
    13    19    20   ar
    14    20    23    1
    15    23    24    1
    16    24    25    1
    17    20    21   ar
    18    21    22   ar
    19     5     6    1
    20     6     7    1
    21     7    26    1
    22    26    27    2
    23    26    28   am
    24    28    30    1
    25    30    31    1
    26    31    32    1
    27    32    33   ar
    28    33    34   ar
    29    34    35   ar
    30    35    36   ar
    31    36    37   ar
    32    31    38    1
    33    38    39   ar
    34    39    40   ar
    35    40    41   ar
    36    41    42   ar
    37    42    43   ar
    38    11    12   ar
    39    12    13   ar
    40    13     8   ar
    41     7     3    1
    42    37    32   ar
    43    43    38   ar
    44    22    18   ar
    45    25    23    1
    46    14    16    1
    47    14    17    1
    48    28    29    1
@<TRIPOS>MOLECULE
*****
 43 48 0 0 0
SMALL
GASTEIGER

@<TRIPOS>ATOM
      1 C         140.0320  142.4713  159.8737 C.2     1  UNL1        0.2494
      2 O         139.3975  142.7941  161.1940 O.2     1  UNL1       -0.2699
      3 N         140.6427  141.1204  159.6454 N.am    1  UNL1       -0.2674
      4 C         141.3092  140.6558  158.3845 C.3     1  UNL1        0.1185
      5 C         141.7726  139.2451  158.5978 C.3     1  UNL1        0.1288
      6 C         141.3925  138.8379  159.9905 C.3     1  UNL1        0.0554
      7 C         140.6942  139.9969  160.6380 C.3     1  UNL1        0.1540
      8 C         140.1035  145.5555  156.5977 C.ar    1  UNL1       -0.0066
      9 C         139.2352  144.3396  156.4643 C.ar    1  UNL1       -0.0028
     10 C         139.2113  143.3116  157.5563 C.ar    1  UNL1        0.0042
     11 C         140.0559  143.4993  158.7817 C.ar    1  UNL1        0.0536
     12 C         140.9242  144.7151  158.9151 C.ar    1  UNL1        0.0042
     13 C         140.9480  145.7432  157.8230 C.ar    1  UNL1       -0.0028
     14 N         139.6407  147.9764  155.7760 N.3     1  UNL1       -0.3175
     15 C         140.1273  146.5835  155.5056 C.3     1  UNL1        0.0922
     16 H         139.7282  148.5376  154.9288 H       1  UNL1        0.1192
     17 H         140.2005  148.3937  156.5196 H       1  UNL1        0.1192
     18 N         142.4901  138.3916  157.5945 N.ar    1  UNL1       -0.2307
     19 C         142.0524  137.0400  157.1131 C.ar    1  UNL1        0.1131
     20 C         143.0631  136.5529  156.1175 C.ar    1  UNL1        0.1005
     21 N         144.1254  137.6034  155.9836 N.ar    1  UNL1       -0.1332
     22 N         143.7713  138.7398  156.8964 N.ar    1  UNL1       -0.0641
     23 C         143.0191  135.2449  155.3846 C.3     1  UNL1        0.0437
     24 C         142.5662  134.4281  154.2108 C.3     1  UNL1        0.0064
     25 C         143.3958  133.7961  155.2889 C.3     1  UNL1        0.0064
     26 C         140.1440  140.0271  162.0331 C.2     1  UNL1        0.2407
     27 O         138.8470  139.3403  162.3429 O.2     1  UNL1       -0.2733
     28 N         140.8908  140.7442  163.1185 N.am    1  UNL1       -0.3023
     29 H         141.7421  141.1950  162.9152 H       1  UNL1        0.1495
     30 C         140.3406  140.7745  164.5136 C.3     1  UNL1        0.0981
     31 C         140.8710  141.7648  165.5077 C.3     1  UNL1        0.0641
     32 C         140.4729  141.6657  166.9504 C.ar    1  UNL1       -0.0168
     33 C         139.8695  140.3972  167.4766 C.ar    1  UNL1       -0.0039
     34 C         139.4715  140.2981  168.9194 C.ar    1  UNL1       -0.0003
     35 C         139.6767  141.4676  169.8361 C.ar    1  UNL1       -0.0000
     36 C         140.2801  142.7361  169.3100 C.ar    1  UNL1       -0.0003
     37 C         140.6782  142.8351  167.8671 C.ar    1  UNL1       -0.0039
     38 C         141.7994  142.8541  165.0589 C.ar    1  UNL1       -0.0168
     39 C         141.2544  144.0612  164.3546 C.ar    1  UNL1       -0.0039
     40 C         142.1828  145.1505  163.9058 C.ar    1  UNL1       -0.0003
     41 C         143.6562  145.0328  164.1613 C.ar    1  UNL1       -0.0000
     42 C         144.2011  143.8257  164.8656 C.ar    1  UNL1       -0.0003
     43 C         143.2727  142.7364  165.3144 C.ar    1  UNL1       -0.0039
@<TRIPOS>BOND
     1    14    15    1
     2    15     8    1
     3     8     9   ar
     4     9    10   ar
     5    10    11   ar
     6    11     1    1
     7     1     2    2
     8     1     3   am
     9     3     4    1
    10     4     5    1
    11     5    18    1
    12    18    19   ar
    13    19    20   ar
    14    20    23    1
    15    23    24    1
    16    24    25    1
    17    20    21   ar
    18    21    22   ar
    19     5     6    1
    20     6     7    1
    21     7    26    1
    22    26    27    2
    23    26    28   am
    24    28    30    1
    25    30    31    1
    26    31    32    1
    27    32    33   ar
    28    33    34   ar
    29    34    35   ar
    30    35    36   ar
    31    36    37   ar
    32    31    38    1
    33    38    39   ar
    34    39    40   ar
    35    40    41   ar
    36    41    42   ar
    37    42    43   ar
    38    11    12   ar
    39    12    13   ar
    40    13     8   ar
    41     7     3    1
    42    37    32   ar
    43    43    38   ar
    44    22    18   ar
    45    25    23    1
    46    14    16    1
    47    14    17    1
    48    28    29    1
@<TRIPOS>MOLECULE
*****
 43 48 0 0 0
SMALL
GASTEIGER

@<TRIPOS>ATOM
      1 C         142.1747  143.9475  159.8463 C.2     1  UNL1        0.2494
      2 O         142.2251  144.6317  161.1802 O.2     1  UNL1       -0.2699
      3 N         142.6142  142.5191  159.7190 N.am    1  UNL1       -0.2674
      4 C         142.6202  141.7074  158.4576 C.3     1  UNL1        0.1185
      5 C         143.1347  140.3381  158.7898 C.3     1  UNL1        0.1288
      6 C         143.4466  140.3034  160.2566 C.3     1  UNL1        0.0554
      7 C         143.1250  141.6513  160.8309 C.3     1  UNL1        0.1540
      8 C         140.7049  146.1803  156.2263 C.ar    1  UNL1       -0.0066
      9 C         142.0180  145.4568  156.1792 C.ar    1  UNL1       -0.0028
     10 C         142.5080  144.7126  157.3858 C.ar    1  UNL1        0.0042
     11 C         141.6847  144.6918  158.6397 C.ar    1  UNL1        0.0536
     12 C         140.3716  145.4152  158.6867 C.ar    1  UNL1        0.0042
     13 C         139.8817  146.1595  157.4800 C.ar    1  UNL1       -0.0028
     14 N         138.7563  146.9094  154.6701 N.3     1  UNL1       -0.3175
     15 C         140.2149  146.9245  155.0196 C.3     1  UNL1        0.0922
     16 H         138.6029  147.4626  153.8270 H       1  UNL1        0.1192
     17 H         138.2181  147.3069  155.4401 H       1  UNL1        0.1192
     18 N         143.3069  139.2028  157.8247 N.ar    1  UNL1       -0.2307
     19 C         142.6174  137.8726  157.8961 C.ar    1  UNL1        0.1131
     20 C         143.0832  137.0461  156.7343 C.ar    1  UNL1        0.1005
     21 N         144.0607  137.8655  155.9449 N.ar    1  UNL1       -0.1332
     22 N         144.1989  139.1984  156.6188 N.ar    1  UNL1       -0.0641
     23 C         142.6480  135.6460  156.4176 C.3     1  UNL1        0.0437
     24 C         142.7878  134.1658  156.6163 C.3     1  UNL1        0.0064
     25 C         141.7543  134.7012  155.6701 C.3     1  UNL1        0.0064
     26 C         143.2859  142.0598  162.2652 C.2     1  UNL1        0.2407
     27 O         144.6504  142.3599  162.8111 O.2     1  UNL1       -0.2733
     28 N         142.0821  142.1682  163.1537 N.am    1  UNL1       -0.3023
     29 H         141.1866  141.9712  162.7954 H       1  UNL1        0.1495
     30 C         142.2429  142.5767  164.5880 C.3     1  UNL1        0.0981
     31 C         141.7260  141.6909  165.6826 C.3     1  UNL1        0.0641
     32 C         141.2076  140.3215  165.3572 C.ar    1  UNL1       -0.0168
     33 C         142.1661  139.1868  165.1479 C.ar    1  UNL1       -0.0039
     34 C         141.6476  137.8174  164.8225 C.ar    1  UNL1       -0.0003
     35 C         140.1706  137.5826  164.7063 C.ar    1  UNL1       -0.0000
     36 C         139.2121  138.7173  164.9156 C.ar    1  UNL1       -0.0003
     37 C         139.7306  140.0868  165.2410 C.ar    1  UNL1       -0.0039
     38 C         141.7276  142.1744  167.1025 C.ar    1  UNL1       -0.0168
     39 C         140.4882  142.7826  167.6890 C.ar    1  UNL1       -0.0039
     40 C         140.4897  143.2662  169.1089 C.ar    1  UNL1       -0.0003
     41 C         141.7307  143.1416  169.9423 C.ar    1  UNL1       -0.0000
     42 C         142.9701  142.5334  169.3557 C.ar    1  UNL1       -0.0003
     43 C         142.9685  142.0498  167.9358 C.ar    1  UNL1       -0.0039
@<TRIPOS>BOND
     1    14    15    1
     2    15     8    1
     3     8     9   ar
     4     9    10   ar
     5    10    11   ar
     6    11     1    1
     7     1     2    2
     8     1     3   am
     9     3     4    1
    10     4     5    1
    11     5    18    1
    12    18    19   ar
    13    19    20   ar
    14    20    23    1
    15    23    24    1
    16    24    25    1
    17    20    21   ar
    18    21    22   ar
    19     5     6    1
    20     6     7    1
    21     7    26    1
    22    26    27    2
    23    26    28   am
    24    28    30    1
    25    30    31    1
    26    31    32    1
    27    32    33   ar
    28    33    34   ar
    29    34    35   ar
    30    35    36   ar
    31    36    37   ar
    32    31    38    1
    33    38    39   ar
    34    39    40   ar
    35    40    41   ar
    36    41    42   ar
    37    42    43   ar
    38    11    12   ar
    39    12    13   ar
    40    13     8   ar
    41     7     3    1
    42    37    32   ar
    43    43    38   ar
    44    22    18   ar
    45    25    23    1
    46    14    16    1
    47    14    17    1
    48    28    29    1
@<TRIPOS>MOLECULE
*****
 43 48 0 0 0
SMALL
GASTEIGER

@<TRIPOS>ATOM
      1 C         142.5288  142.6222  160.0418 C.2     1  UNL1        0.2494
      2 O         143.1003  143.1949  161.3049 O.2     1  UNL1       -0.2699
      3 N         142.6008  141.1456  159.7881 N.am    1  UNL1       -0.2674
      4 C         142.0756  140.4323  158.5775 C.3     1  UNL1        0.1185
      5 C         142.3608  138.9688  158.7416 C.3     1  UNL1        0.1288
      6 C         143.0623  138.7776  160.0537 C.3     1  UNL1        0.0554
      7 C         143.2106  140.1228  160.7004 C.3     1  UNL1        0.1540
      8 C         140.5984  145.3339  157.0137 C.ar    1  UNL1       -0.0066
      9 C         142.0877  145.1549  157.0185 C.ar    1  UNL1       -0.0028
     10 C         142.7311  144.2510  158.0278 C.ar    1  UNL1        0.0042
     11 C         141.8853  143.5260  159.0325 C.ar    1  UNL1        0.0536
     12 C         140.3961  143.7051  159.0277 C.ar    1  UNL1        0.0042
     13 C         139.7526  144.6091  158.0182 C.ar    1  UNL1       -0.0028
     14 N         139.5016  147.6097  156.4072 N.3     1  UNL1       -0.3175
     15 C         139.9549  146.2379  156.0042 C.3     1  UNL1        0.0922
     16 H         139.0903  148.0820  155.6021 H       1  UNL1        0.1192
     17 H         140.3006  148.1464  156.7446 H       1  UNL1        0.1192
     18 N         142.0068  137.8866  157.7652 N.ar    1  UNL1       -0.2307
     19 C         142.8074  136.6475  157.4938 C.ar    1  UNL1        0.1131
     20 C         142.0853  135.8486  156.4496 C.ar    1  UNL1        0.1005
     21 N         140.8385  136.5939  156.0757 N.ar    1  UNL1       -0.1332
     22 N         140.7899  137.8535  156.8888 N.ar    1  UNL1       -0.0641
     23 C         142.5318  134.5350  155.8794 C.3     1  UNL1        0.0437
     24 C         142.2315  133.2849  155.1066 C.3     1  UNL1        0.0064
     25 C         143.6055  133.5098  155.6647 C.3     1  UNL1        0.0064
     26 C         143.8555  140.3973  162.0266 C.2     1  UNL1        0.2407
     27 O         145.2325  140.9894  162.0828 O.2     1  UNL1       -0.2733
     28 N         143.1233  140.0797  163.2967 N.am    1  UNL1       -0.3023
     29 H         142.2195  139.6911  163.2598 H       1  UNL1        0.1495
     30 C         143.7681  140.3541  164.6229 C.3     1  UNL1        0.0981
     31 C         143.2259  141.4343  165.5113 C.3     1  UNL1        0.0641
     32 C         143.0324  141.1741  166.9758 C.ar    1  UNL1       -0.0168
     33 C         142.6494  139.8036  167.4499 C.ar    1  UNL1       -0.0039
     34 C         142.4559  139.5435  168.9144 C.ar    1  UNL1       -0.0003
     35 C         142.6455  140.6539  169.9049 C.ar    1  UNL1       -0.0000
     36 C         143.0285  142.0245  169.4308 C.ar    1  UNL1       -0.0003
     37 C         143.2220  142.2846  167.9662 C.ar    1  UNL1       -0.0039
     38 C         142.8772  142.7746  164.9351 C.ar    1  UNL1       -0.0168
     39 C         141.4457  143.1173  164.6461 C.ar    1  UNL1       -0.0039
     40 C         141.0970  144.4576  164.0700 C.ar    1  UNL1       -0.0003
     41 C         142.1797  145.4552  163.7827 C.ar    1  UNL1       -0.0000
     42 C         143.6112  145.1125  164.0717 C.ar    1  UNL1       -0.0003
     43 C         143.9599  143.7722  164.6479 C.ar    1  UNL1       -0.0039
@<TRIPOS>BOND
     1    14    15    1
     2    15     8    1
     3     8     9   ar
     4     9    10   ar
     5    10    11   ar
     6    11     1    1
     7     1     2    2
     8     1     3   am
     9     3     4    1
    10     4     5    1
    11     5    18    1
    12    18    19   ar
    13    19    20   ar
    14    20    23    1
    15    23    24    1
    16    24    25    1
    17    20    21   ar
    18    21    22   ar
    19     5     6    1
    20     6     7    1
    21     7    26    1
    22    26    27    2
    23    26    28   am
    24    28    30    1
    25    30    31    1
    26    31    32    1
    27    32    33   ar
    28    33    34   ar
    29    34    35   ar
    30    35    36   ar
    31    36    37   ar
    32    31    38    1
    33    38    39   ar
    34    39    40   ar
    35    40    41   ar
    36    41    42   ar
    37    42    43   ar
    38    11    12   ar
    39    12    13   ar
    40    13     8   ar
    41     7     3    1
    42    37    32   ar
    43    43    38   ar
    44    22    18   ar
    45    25    23    1
    46    14    16    1
    47    14    17    1
    48    28    29    1
@<TRIPOS>MOLECULE
*****
 43 48 0 0 0
SMALL
GASTEIGER

@<TRIPOS>ATOM
      1 C         140.3460  140.0558  160.7599 C.2     1  UNL1        0.2494
      2 O         139.7794  139.5387  162.0490 O.2     1  UNL1       -0.2699
      3 N         140.2833  141.5216  160.4477 N.am    1  UNL1       -0.2674
      4 C         140.8050  142.1816  159.2058 C.3     1  UNL1        0.1185
      5 C         140.5319  143.6528  159.3130 C.3     1  UNL1        0.1288
      6 C         139.8414  143.9019  160.6212 C.3     1  UNL1        0.0554
      7 C         139.6878  142.5848  161.3224 C.3     1  UNL1        0.1540
      8 C         142.2339  137.2100  157.8297 C.ar    1  UNL1       -0.0066
      9 C         140.8934  137.8134  157.5317 C.ar    1  UNL1       -0.0028
     10 C         140.2641  138.7620  158.5084 C.ar    1  UNL1        0.0042
     11 C         140.9753  139.1072  159.7832 C.ar    1  UNL1        0.0536
     12 C         142.3159  138.5038  160.0812 C.ar    1  UNL1        0.0042
     13 C         142.9452  137.5551  159.1044 C.ar    1  UNL1       -0.0028
     14 N         144.0467  136.6967  156.0407 N.3     1  UNL1       -0.3175
     15 C         142.8632  136.2613  156.8529 C.3     1  UNL1        0.0922
     16 H         144.3428  135.9320  155.4341 H       1  UNL1        0.1192
     17 H         144.8122  136.9515  156.6648 H       1  UNL1        0.1192
     18 N         140.8870  144.6922  158.2915 N.ar    1  UNL1       -0.2307
     19 C         139.9471  145.3106  157.2995 C.ar    1  UNL1        0.1131
     20 C         140.7235  146.2962  156.4775 C.ar    1  UNL1        0.1005
     21 N         142.1432  146.2870  156.9616 N.ar    1  UNL1       -0.1332
     22 N         142.2443  145.2956  158.0828 N.ar    1  UNL1       -0.0641
     23 C         140.1763  147.1426  155.3666 C.3     1  UNL1        0.0437
     24 C         140.3365  147.7764  154.0165 C.3     1  UNL1        0.0064
     25 C         139.0682  147.9746  154.7924 C.3     1  UNL1        0.0064
     26 C         139.0505  142.3687  162.6630 C.2     1  UNL1        0.2407
     27 O         137.5692  142.1552  162.7637 O.2     1  UNL1       -0.2733
     28 N         139.8946  142.3661  163.9030 N.am    1  UNL1       -0.3023
     29 H         140.8668  142.5062  163.8370 H       1  UNL1        0.1495
     30 C         139.2574  142.1500  165.2437 C.3     1  UNL1        0.0981
     31 C         139.7928  141.0965  166.1675 C.3     1  UNL1        0.0641
     32 C         140.1652  139.7466  165.6298 C.ar    1  UNL1       -0.0168
     33 C         141.6036  139.4171  165.3608 C.ar    1  UNL1       -0.0039
     34 C         141.9758  138.0671  164.8231 C.ar    1  UNL1       -0.0003
     35 C         140.9098  137.0467  164.5545 C.ar    1  UNL1       -0.0000
     36 C         139.4714  137.3762  164.8235 C.ar    1  UNL1       -0.0003
     37 C         139.0990  138.7262  165.3612 C.ar    1  UNL1       -0.0039
     38 C         139.9558  141.3928  167.6288 C.ar    1  UNL1       -0.0168
     39 C         139.5999  140.3526  168.6493 C.ar    1  UNL1       -0.0039
     40 C         139.7629  140.6490  170.1107 C.ar    1  UNL1       -0.0003
     41 C         140.2817  141.9856  170.5515 C.ar    1  UNL1       -0.0000
     42 C         140.6376  143.0258  169.5311 C.ar    1  UNL1       -0.0003
     43 C         140.4746  142.7294  168.0697 C.ar    1  UNL1       -0.0039
@<TRIPOS>BOND
     1    14    15    1
     2    15     8    1
     3     8     9   ar
     4     9    10   ar
     5    10    11   ar
     6    11     1    1
     7     1     2    2
     8     1     3   am
     9     3     4    1
    10     4     5    1
    11     5    18    1
    12    18    19   ar
    13    19    20   ar
    14    20    23    1
    15    23    24    1
    16    24    25    1
    17    20    21   ar
    18    21    22   ar
    19     5     6    1
    20     6     7    1
    21     7    26    1
    22    26    27    2
    23    26    28   am
    24    28    30    1
    25    30    31    1
    26    31    32    1
    27    32    33   ar
    28    33    34   ar
    29    34    35   ar
    30    35    36   ar
    31    36    37   ar
    32    31    38    1
    33    38    39   ar
    34    39    40   ar
    35    40    41   ar
    36    41    42   ar
    37    42    43   ar
    38    11    12   ar
    39    12    13   ar
    40    13     8   ar
    41     7     3    1
    42    37    32   ar
    43    43    38   ar
    44    22    18   ar
    45    25    23    1
    46    14    16    1
    47    14    17    1
    48    28    29    1
@<TRIPOS>MOLECULE
*****
 43 48 0 0 0
SMALL
GASTEIGER

@<TRIPOS>ATOM
      1 C         141.5024  144.2678  159.5520 C.2     1  UNL1        0.2494
      2 O         141.0762  144.6006  160.9512 O.2     1  UNL1       -0.2699
      3 N         142.8159  143.5848  159.3105 N.am    1  UNL1       -0.2674
      4 C         143.3726  143.1916  157.9743 C.3     1  UNL1        0.1185
      5 C         144.7041  142.5388  158.2008 C.3     1  UNL1        0.1288
      6 C         144.9702  142.5287  159.6770 C.3     1  UNL1        0.0554
      7 C         143.8033  143.1751  160.3628 C.3     1  UNL1        0.1540
      8 C         138.8408  145.3186  156.0791 C.ar    1  UNL1       -0.0066
      9 C         138.7822  143.9456  156.6803 C.ar    1  UNL1       -0.0028
     10 C         139.6694  143.5954  157.8380 C.ar    1  UNL1        0.0042
     11 C         140.6152  144.6181  158.3944 C.ar    1  UNL1        0.0536
     12 C         140.6738  145.9911  157.7931 C.ar    1  UNL1        0.0042
     13 C         139.7865  146.3413  156.6354 C.ar    1  UNL1       -0.0028
     14 N         137.1663  144.5964  154.2285 N.3     1  UNL1       -0.3175
     15 C         137.9535  145.6688  154.9214 C.3     1  UNL1        0.0922
     16 H         136.6225  145.0096  153.4709 H       1  UNL1        0.1192
     17 H         136.5362  144.1520  154.8962 H       1  UNL1        0.1192
     18 N         145.6102  141.9922  157.1377 N.ar    1  UNL1       -0.2307
     19 C         146.9686  142.5189  156.7808 C.ar    1  UNL1        0.1131
     20 C         147.5150  141.6751  155.6675 C.ar    1  UNL1        0.1005
     21 N         146.4943  140.6271  155.3363 N.ar    1  UNL1       -0.1332
     22 N         145.3171  140.8231  156.2450 N.ar    1  UNL1       -0.0641
     23 C         148.8481  141.8490  155.0022 C.3     1  UNL1        0.0437
     24 C         149.6755  142.3829  153.8705 C.3     1  UNL1        0.0064
     25 C         150.3298  141.6162  154.9814 C.3     1  UNL1        0.0064
     26 C         143.6505  143.3766  161.8413 C.2     1  UNL1        0.2407
     27 O         144.2155  144.6035  162.4935 O.2     1  UNL1       -0.2733
     28 N         142.9325  142.3511  162.6677 N.am    1  UNL1       -0.3023
     29 H         142.5616  141.5458  162.2397 H       1  UNL1        0.1495
     30 C         142.7797  142.5524  164.1463 C.3     1  UNL1        0.0981
     31 C         141.4567  142.2963  164.8053 C.3     1  UNL1        0.0641
     32 C         141.3926  141.4962  166.0724 C.ar    1  UNL1       -0.0168
     33 C         142.6191  141.3354  166.9208 C.ar    1  UNL1       -0.0039
     34 C         142.5549  140.5353  168.1880 C.ar    1  UNL1       -0.0003
     35 C         141.2641  139.8961  168.6069 C.ar    1  UNL1       -0.0000
     36 C         140.0376  140.0569  167.7585 C.ar    1  UNL1       -0.0003
     37 C         140.1018  140.8571  166.4912 C.ar    1  UNL1       -0.0039
     38 C         140.1981  142.8402  164.1971 C.ar    1  UNL1       -0.0168
     39 C         139.6229  144.1333  164.6941 C.ar    1  UNL1       -0.0039
     40 C         138.3642  144.6771  164.0860 C.ar    1  UNL1       -0.0003
     41 C         137.6807  143.9279  162.9807 C.ar    1  UNL1       -0.0000
     42 C         138.2559  142.6349  162.4837 C.ar    1  UNL1       -0.0003
     43 C         139.5146  142.0910  163.0919 C.ar    1  UNL1       -0.0039
@<TRIPOS>BOND
     1    14    15    1
     2    15     8    1
     3     8     9   ar
     4     9    10   ar
     5    10    11   ar
     6    11     1    1
     7     1     2    2
     8     1     3   am
     9     3     4    1
    10     4     5    1
    11     5    18    1
    12    18    19   ar
    13    19    20   ar
    14    20    23    1
    15    23    24    1
    16    24    25    1
    17    20    21   ar
    18    21    22   ar
    19     5     6    1
    20     6     7    1
    21     7    26    1
    22    26    27    2
    23    26    28   am
    24    28    30    1
    25    30    31    1
    26    31    32    1
    27    32    33   ar
    28    33    34   ar
    29    34    35   ar
    30    35    36   ar
    31    36    37   ar
    32    31    38    1
    33    38    39   ar
    34    39    40   ar
    35    40    41   ar
    36    41    42   ar
    37    42    43   ar
    38    11    12   ar
    39    12    13   ar
    40    13     8   ar
    41     7     3    1
    42    37    32   ar
    43    43    38   ar
    44    22    18   ar
    45    25    23    1
    46    14    16    1
    47    14    17    1
    48    28    29    1
