@<TRIPOS>MOLECULE
*****
 26 29 0 0 0
SMALL
GASTEIGER

@<TRIPOS>ATOM
      1 C         139.2743  141.8854  164.6098 C.ar    1  UNL1        0.0182
      2 C         140.1071  141.3640  163.4764 C.ar    1  UNL1        0.0023
      3 C         139.7810  141.7533  162.0650 C.ar    1  UNL1        0.0367
      4 C         138.6220  142.6640  161.7870 C.ar    1  UNL1        0.1385
      5 C         137.7892  143.1855  162.9204 C.ar    1  UNL1        0.0367
      6 C         138.1154  142.7961  164.3318 C.ar    1  UNL1        0.0023
      7 C         138.2219  139.3123  165.7373 C.3     1  UNL1        0.0162
      8 C         139.0743  140.2095  166.5850 C.3     1  UNL1        0.0963
      9 S         139.4005  139.8201  167.9963 S.3     1  UNL1       -0.1075
     10 C         140.2529  140.7173  168.8440 C.ar    1  UNL1        0.0593
     11 C         140.5791  140.3279  170.2553 C.ar    1  UNL1        0.0092
     12 C         141.4315  141.2251  171.1029 C.ar    1  UNL1        0.0007
     13 C         141.9577  142.5116  170.5392 C.ar    1  UNL1        0.0031
     14 C         141.6315  142.9010  169.1278 C.ar    1  UNL1        0.0374
     15 C         140.7791  142.0038  168.2802 C.ar    1  UNL1        0.1444
     16 O         140.4529  142.3932  166.8688 O.3     1  UNL1       -0.4734
     17 C         139.6005  141.4960  166.0212 C.3     1  UNL1        0.1982
     18 O         138.2958  143.0534  160.3756 O.3     1  UNL1       -0.4754
     19 C         139.4007  143.3214  159.3971 C.3     1  UNL1        0.2068
     20 C         140.0865  144.6553  159.3871 C.3     1  UNL1        0.0646
     21 C         141.4594  144.7972  159.9746 C.3     1  UNL1        0.0759
     22 N         141.6492  144.7340  161.4612 N.3     1  UNL1       -0.2726
     23 C         142.7408  143.9980  162.1802 C.3     1  UNL1        0.0721
     24 C         142.5471  144.2047  163.6531 C.3     1  UNL1        0.0188
     25 C         141.3358  145.0686  163.8446 C.3     1  UNL1        0.0188
     26 C         140.7809  145.3957  162.4899 C.3     1  UNL1        0.0721
@<TRIPOS>BOND
     1     8     7    1
     2     8     9    1
     3     9    10    1
     4    10    11   ar
     5    11    12   ar
     6    12    13   ar
     7    13    14   ar
     8    14    15   ar
     9    15    16    1
    10    16    17    1
    11    17     1    1
    12     1     2   ar
    13     2     3   ar
    14     3     4   ar
    15     4    18    1
    16    18    19    1
    17    19    20    1
    18    20    21    1
    19    21    22    1
    20    22    23    1
    21    23    24    1
    22    24    25    1
    23    25    26    1
    24     4     5   ar
    25     5     6   ar
    26    17     8    1
    27     6     1   ar
    28    15    10   ar
    29    26    22    1
@<TRIPOS>MOLECULE
*****
 26 29 0 0 0
SMALL
GASTEIGER

@<TRIPOS>ATOM
      1 C         140.8507  139.4425  165.1259 C.ar    1  UNL1        0.0182
      2 C         141.2031  137.9986  164.9241 C.ar    1  UNL1        0.0023
      3 C         141.2201  137.4168  163.5416 C.ar    1  UNL1        0.0367
      4 C         140.8845  138.2790  162.3610 C.ar    1  UNL1        0.1385
      5 C         140.5320  139.7230  162.5628 C.ar    1  UNL1        0.0367
      6 C         140.5151  140.3047  163.9452 C.ar    1  UNL1        0.0023
      7 C         138.4185  139.1316  166.8544 C.3     1  UNL1        0.0162
      8 C         139.6176  139.8688  167.3727 C.3     1  UNL1        0.0963
      9 S         139.6007  140.4505  168.7552 S.3     1  UNL1       -0.1075
     10 C         140.7999  141.1878  169.2734 C.ar    1  UNL1        0.0593
     11 C         140.7829  141.7695  170.6559 C.ar    1  UNL1        0.0092
     12 C         141.9820  142.5067  171.1741 C.ar    1  UNL1        0.0007
     13 C         143.1981  142.6621  170.3099 C.ar    1  UNL1        0.0031
     14 C         143.2151  142.0804  168.9274 C.ar    1  UNL1        0.0374
     15 C         142.0160  141.3432  168.4092 C.ar    1  UNL1        0.1444
     16 O         142.0329  140.7615  167.0266 O.3     1  UNL1       -0.4734
     17 C         140.8337  140.0243  166.5084 C.3     1  UNL1        0.1982
     18 O         140.9014  137.6972  160.9784 O.3     1  UNL1       -0.4754
     19 C         142.0529  137.9802  160.0597 C.3     1  UNL1        0.2068
     20 C         143.4493  138.0404  160.6040 C.3     1  UNL1        0.0646
     21 C         144.0998  139.3685  160.8553 C.3     1  UNL1        0.0759
     22 N         144.1710  139.9169  162.2496 N.3     1  UNL1       -0.2726
     23 C         144.4759  139.1322  163.4912 C.3     1  UNL1        0.0721
     24 C         144.4431  140.0766  164.6561 C.3     1  UNL1        0.0188
     25 C         144.1179  141.4449  164.1346 C.3     1  UNL1        0.0188
     26 C         143.9497  141.3462  162.6472 C.3     1  UNL1        0.0721
@<TRIPOS>BOND
     1     8     7    1
     2     8     9    1
     3     9    10    1
     4    10    11   ar
     5    11    12   ar
     6    12    13   ar
     7    13    14   ar
     8    14    15   ar
     9    15    16    1
    10    16    17    1
    11    17     1    1
    12     1     2   ar
    13     2     3   ar
    14     3     4   ar
    15     4    18    1
    16    18    19    1
    17    19    20    1
    18    20    21    1
    19    21    22    1
    20    22    23    1
    21    23    24    1
    22    24    25    1
    23    25    26    1
    24     4     5   ar
    25     5     6   ar
    26    17     8    1
    27     6     1   ar
    28    15    10   ar
    29    26    22    1
@<TRIPOS>MOLECULE
*****
 26 29 0 0 0
SMALL
GASTEIGER

@<TRIPOS>ATOM
      1 C         142.9641  140.3843  164.7862 C.ar    1  UNL1        0.0182
      2 C         141.9599  139.9555  163.7578 C.ar    1  UNL1        0.0023
      3 C         142.3629  139.8425  162.3174 C.ar    1  UNL1        0.0367
      4 C         143.7702  140.1583  161.9055 C.ar    1  UNL1        0.1385
      5 C         144.7744  140.5871  162.9339 C.ar    1  UNL1        0.0367
      6 C         144.3714  140.7001  164.3742 C.ar    1  UNL1        0.0023
      7 C         143.6456  138.1866  166.7113 C.3     1  UNL1        0.0162
      8 C         142.9017  139.3984  167.1892 C.3     1  UNL1        0.0963
      9 S         142.4987  139.5114  168.6296 S.3     1  UNL1       -0.1075
     10 C         141.7548  140.7232  169.1075 C.ar    1  UNL1        0.0593
     11 C         141.3517  140.8361  170.5479 C.ar    1  UNL1        0.0092
     12 C         140.6079  142.0478  171.0257 C.ar    1  UNL1        0.0007
     13 C         140.2672  143.1467  170.0632 C.ar    1  UNL1        0.0031
     14 C         140.6703  143.0337  168.6228 C.ar    1  UNL1        0.0374
     15 C         141.4141  141.8220  168.1449 C.ar    1  UNL1        0.1444
     16 O         141.8172  141.7090  166.7045 O.3     1  UNL1       -0.4734
     17 C         142.5610  140.4973  166.2267 C.3     1  UNL1        0.1982
     18 O         144.1733  140.0453  160.4650 O.3     1  UNL1       -0.4754
     19 C         143.8062  141.1301  159.4962 C.3     1  UNL1        0.2068
     20 C         144.0509  142.5668  159.8509 C.3     1  UNL1        0.0646
     21 C         142.9496  143.3890  160.4518 C.3     1  UNL1        0.0759
     22 N         142.9728  143.7192  161.9148 N.3     1  UNL1       -0.2726
     23 C         144.1538  144.2325  162.6842 C.3     1  UNL1        0.0721
     24 C         143.7301  144.4246  164.1102 C.3     1  UNL1        0.0188
     25 C         142.2871  144.0302  164.2222 C.3     1  UNL1        0.0188
     26 C         141.8192  143.5942  162.8653 C.3     1  UNL1        0.0721
@<TRIPOS>BOND
     1     8     7    1
     2     8     9    1
     3     9    10    1
     4    10    11   ar
     5    11    12   ar
     6    12    13   ar
     7    13    14   ar
     8    14    15   ar
     9    15    16    1
    10    16    17    1
    11    17     1    1
    12     1     2   ar
    13     2     3   ar
    14     3     4   ar
    15     4    18    1
    16    18    19    1
    17    19    20    1
    18    20    21    1
    19    21    22    1
    20    22    23    1
    21    23    24    1
    22    24    25    1
    23    25    26    1
    24     4     5   ar
    25     5     6   ar
    26    17     8    1
    27     6     1   ar
    28    15    10   ar
    29    26    22    1
@<TRIPOS>MOLECULE
*****
 26 29 0 0 0
SMALL
GASTEIGER

@<TRIPOS>ATOM
      1 C         139.2105  141.9333  164.5577 C.ar    1  UNL1        0.0182
      2 C         140.1891  141.6619  163.4538 C.ar    1  UNL1        0.0023
      3 C         139.8735  142.0871  162.0504 C.ar    1  UNL1        0.0367
      4 C         138.5793  142.7837  161.7509 C.ar    1  UNL1        0.1385
      5 C         137.6007  143.0551  162.8549 C.ar    1  UNL1        0.0367
      6 C         137.9163  142.6299  164.2582 C.ar    1  UNL1        0.0023
      7 C         138.3048  139.2517  165.5520 C.3     1  UNL1        0.0162
      8 C         139.0733  140.1672  166.4583 C.3     1  UNL1        0.0963
      9 S         139.3889  139.7420  167.8617 S.3     1  UNL1       -0.1075
     10 C         140.1574  140.6575  168.7680 C.ar    1  UNL1        0.0593
     11 C         140.4730  140.2322  170.1713 C.ar    1  UNL1        0.0092
     12 C         141.2415  141.1477  171.0775 C.ar    1  UNL1        0.0007
     13 C         141.6944  142.4885  170.5803 C.ar    1  UNL1        0.0031
     14 C         141.3788  142.9138  169.1770 C.ar    1  UNL1        0.0374
     15 C         140.6103  141.9983  168.2708 C.ar    1  UNL1        0.1444
     16 O         140.2946  142.4235  166.8673 O.3     1  UNL1       -0.4734
     17 C         139.5261  141.5080  165.9612 C.3     1  UNL1        0.1982
     18 O         138.2636  143.2090  160.3475 O.3     1  UNL1       -0.4754
     19 C         139.2562  142.9667  159.2492 C.3     1  UNL1        0.2068
     20 C         139.1702  141.7181  158.4226 C.3     1  UNL1        0.0646
     21 C         138.1288  140.6838  158.7322 C.3     1  UNL1        0.0759
     22 N         138.3374  139.7260  159.8675 N.3     1  UNL1       -0.2726
     23 C         137.3681  139.4516  160.9791 C.3     1  UNL1        0.0721
     24 C         137.9835  138.4303  161.8892 C.3     1  UNL1        0.0188
     25 C         139.3331  138.0735  161.3402 C.3     1  UNL1        0.0188
     26 C         139.5518  138.8742  160.0907 C.3     1  UNL1        0.0721
@<TRIPOS>BOND
     1     8     7    1
     2     8     9    1
     3     9    10    1
     4    10    11   ar
     5    11    12   ar
     6    12    13   ar
     7    13    14   ar
     8    14    15   ar
     9    15    16    1
    10    16    17    1
    11    17     1    1
    12     1     2   ar
    13     2     3   ar
    14     3     4   ar
    15     4    18    1
    16    18    19    1
    17    19    20    1
    18    20    21    1
    19    21    22    1
    20    22    23    1
    21    23    24    1
    22    24    25    1
    23    25    26    1
    24     4     5   ar
    25     5     6   ar
    26    17     8    1
    27     6     1   ar
    28    15    10   ar
    29    26    22    1
@<TRIPOS>MOLECULE
*****
 26 29 0 0 0
SMALL
GASTEIGER

@<TRIPOS>ATOM
      1 C         141.8963  141.9228  164.4956 C.ar    1  UNL1        0.0182
      2 C         140.8721  141.4358  163.5139 C.ar    1  UNL1        0.0023
      3 C         140.8996  141.9251  162.0963 C.ar    1  UNL1        0.0367
      4 C         141.9515  142.9015  161.6603 C.ar    1  UNL1        0.1385
      5 C         142.9758  143.3886  162.6419 C.ar    1  UNL1        0.0367
      6 C         142.9482  142.8992  164.0596 C.ar    1  UNL1        0.0023
      7 C         143.2847  139.3660  165.2271 C.3     1  UNL1        0.0162
      8 C         142.5629  140.1550  166.2790 C.3     1  UNL1        0.0963
      9 S         142.5353  139.6656  167.6966 S.3     1  UNL1       -0.1075
     10 C         141.8134  140.4546  168.7486 C.ar    1  UNL1        0.0593
     11 C         141.7858  139.9652  170.1662 C.ar    1  UNL1        0.0092
     12 C         141.0640  140.7542  171.2180 C.ar    1  UNL1        0.0007
     13 C         140.3699  142.0326  170.8523 C.ar    1  UNL1        0.0031
     14 C         140.3975  142.5220  169.4347 C.ar    1  UNL1        0.0374
     15 C         141.1193  141.7330  168.3828 C.ar    1  UNL1        0.1444
     16 O         141.1469  142.2224  166.9651 O.3     1  UNL1       -0.4734
     17 C         141.8687  141.4334  165.9133 C.3     1  UNL1        0.1982
     18 O         141.9792  143.3909  160.2426 O.3     1  UNL1       -0.4754
     19 C         141.4898  144.7707  159.9158 C.3     1  UNL1        0.2068
     20 C         140.1279  145.2096  160.3657 C.3     1  UNL1        0.0646
     21 C         139.9611  145.9014  161.6862 C.3     1  UNL1        0.0759
     22 N         139.3543  145.1683  162.8456 N.3     1  UNL1       -0.2726
     23 C         139.9281  145.0765  164.2285 C.3     1  UNL1        0.0721
     24 C         138.9957  144.2498  165.0634 C.3     1  UNL1        0.0188
     25 C         137.8455  143.8305  164.1965 C.3     1  UNL1        0.0188
     26 C         138.0672  144.3983  162.8258 C.3     1  UNL1        0.0721
@<TRIPOS>BOND
     1     8     7    1
     2     8     9    1
     3     9    10    1
     4    10    11   ar
     5    11    12   ar
     6    12    13   ar
     7    13    14   ar
     8    14    15   ar
     9    15    16    1
    10    16    17    1
    11    17     1    1
    12     1     2   ar
    13     2     3   ar
    14     3     4   ar
    15     4    18    1
    16    18    19    1
    17    19    20    1
    18    20    21    1
    19    21    22    1
    20    22    23    1
    21    23    24    1
    22    24    25    1
    23    25    26    1
    24     4     5   ar
    25     5     6   ar
    26    17     8    1
    27     6     1   ar
    28    15    10   ar
    29    26    22    1
@<TRIPOS>MOLECULE
*****
 26 29 0 0 0
SMALL
GASTEIGER

@<TRIPOS>ATOM
      1 C         141.3481  141.4652  164.3276 C.ar    1  UNL1        0.0182
      2 C         141.8500  140.3158  163.5049 C.ar    1  UNL1        0.0023
      3 C         141.6106  140.2922  162.0243 C.ar    1  UNL1        0.0367
      4 C         140.8694  141.4181  161.3665 C.ar    1  UNL1        0.1385
      5 C         140.3675  142.5676  162.1892 C.ar    1  UNL1        0.0367
      6 C         140.6069  142.5912  163.6697 C.ar    1  UNL1        0.0023
      7 C         143.7729  142.8430  165.4332 C.3     1  UNL1        0.0162
      8 C         142.7999  142.1777  166.3610 C.3     1  UNL1        0.0963
      9 S         143.0394  142.2012  167.8416 S.3     1  UNL1       -0.1075
     10 C         142.0664  141.5359  168.7694 C.ar    1  UNL1        0.0593
     11 C         142.3059  141.5594  170.2499 C.ar    1  UNL1        0.0092
     12 C         141.3330  140.8941  171.1777 C.ar    1  UNL1        0.0007
     13 C         140.1206  140.2052  170.6249 C.ar    1  UNL1        0.0031
     14 C         139.8812  140.1816  169.1443 C.ar    1  UNL1        0.0374
     15 C         140.8541  140.8470  168.2166 C.ar    1  UNL1        0.1444
     16 O         140.6147  140.8234  166.7359 O.3     1  UNL1       -0.4734
     17 C         141.5876  141.4888  165.8082 C.3     1  UNL1        0.1982
     18 O         140.6300  141.3946  159.8858 O.3     1  UNL1       -0.4754
     19 C         139.2687  141.0606  159.3515 C.3     1  UNL1        0.2068
     20 C         138.5964  139.7827  159.7573 C.3     1  UNL1        0.0646
     21 C         137.6395  139.7726  160.9124 C.3     1  UNL1        0.0759
     22 N         138.0822  139.2547  162.2486 N.3     1  UNL1       -0.2726
     23 C         138.7175  137.9214  162.5111 C.3     1  UNL1        0.0721
     24 C         138.9954  137.8217  163.9818 C.3     1  UNL1        0.0188
     25 C         138.5318  139.0934  164.6283 C.3     1  UNL1        0.0188
     26 C         137.9674  139.9790  163.5572 C.3     1  UNL1        0.0721
@<TRIPOS>BOND
     1     8     7    1
     2     8     9    1
     3     9    10    1
     4    10    11   ar
     5    11    12   ar
     6    12    13   ar
     7    13    14   ar
     8    14    15   ar
     9    15    16    1
    10    16    17    1
    11    17     1    1
    12     1     2   ar
    13     2     3   ar
    14     3     4   ar
    15     4    18    1
    16    18    19    1
    17    19    20    1
    18    20    21    1
    19    21    22    1
    20    22    23    1
    21    23    24    1
    22    24    25    1
    23    25    26    1
    24     4     5   ar
    25     5     6   ar
    26    17     8    1
    27     6     1   ar
    28    15    10   ar
    29    26    22    1
@<TRIPOS>MOLECULE
*****
 26 29 0 0 0
SMALL
GASTEIGER

@<TRIPOS>ATOM
      1 C         143.0565  139.7737  164.5718 C.ar    1  UNL1        0.0182
      2 C         144.2412  140.4725  163.9732 C.ar    1  UNL1        0.0023
      3 C         144.6465  140.1834  162.5583 C.ar    1  UNL1        0.0367
      4 C         143.8672  139.1953  161.7420 C.ar    1  UNL1        0.1385
      5 C         142.6825  138.4965  162.3406 C.ar    1  UNL1        0.0367
      6 C         142.2772  138.7857  163.7555 C.ar    1  UNL1        0.0023
      7 C         143.8266  137.8820  166.7692 C.3     1  UNL1        0.0162
      8 C         143.0362  139.1171  167.0855 C.3     1  UNL1        0.0963
      9 S         142.6310  139.4063  168.5004 S.3     1  UNL1       -0.1075
     10 C         141.8406  140.6414  168.8167 C.ar    1  UNL1        0.0593
     11 C         141.4354  140.9306  170.2317 C.ar    1  UNL1        0.0092
     12 C         140.6451  142.1656  170.5479 C.ar    1  UNL1        0.0007
     13 C         140.2600  143.1115  169.4492 C.ar    1  UNL1        0.0031
     14 C         140.6653  142.8223  168.0343 C.ar    1  UNL1        0.0374
     15 C         141.4556  141.5872  167.7181 C.ar    1  UNL1        0.1444
     16 O         141.8609  141.2980  166.3031 O.3     1  UNL1       -0.4734
     17 C         142.6512  140.0630  165.9868 C.3     1  UNL1        0.1982
     18 O         144.2725  138.9061  160.3270 O.3     1  UNL1       -0.4754
     19 C         143.6128  139.6349  159.1940 C.3     1  UNL1        0.2068
     20 C         143.7404  141.1255  159.0855 C.3     1  UNL1        0.0646
     21 C         142.5529  142.0015  159.3546 C.3     1  UNL1        0.0759
     22 N         142.1500  142.3058  160.7670 N.3     1  UNL1       -0.2726
     23 C         141.0218  141.6648  161.5197 C.3     1  UNL1        0.0721
     24 C         140.9791  142.2673  162.8927 C.3     1  UNL1        0.0188
     25 C         142.0809  143.2807  162.9887 C.3     1  UNL1        0.0188
     26 C         142.8046  143.3044  161.6749 C.3     1  UNL1        0.0721
@<TRIPOS>BOND
     1     8     7    1
     2     8     9    1
     3     9    10    1
     4    10    11   ar
     5    11    12   ar
     6    12    13   ar
     7    13    14   ar
     8    14    15   ar
     9    15    16    1
    10    16    17    1
    11    17     1    1
    12     1     2   ar
    13     2     3   ar
    14     3     4   ar
    15     4    18    1
    16    18    19    1
    17    19    20    1
    18    20    21    1
    19    21    22    1
    20    22    23    1
    21    23    24    1
    22    24    25    1
    23    25    26    1
    24     4     5   ar
    25     5     6   ar
    26    17     8    1
    27     6     1   ar
    28    15    10   ar
    29    26    22    1
@<TRIPOS>MOLECULE
*****
 26 29 0 0 0
SMALL
GASTEIGER

@<TRIPOS>ATOM
      1 C         140.6300  139.7547  164.5459 C.ar    1  UNL1        0.0182
      2 C         139.2395  139.2072  164.4163 C.ar    1  UNL1        0.0023
      3 C         138.7198  138.7903  163.0724 C.ar    1  UNL1        0.0367
      4 C         139.5906  138.9210  161.8581 C.ar    1  UNL1        0.1385
      5 C         140.9811  139.4685  161.9877 C.ar    1  UNL1        0.0367
      6 C         141.5008  139.8853  163.3315 C.ar    1  UNL1        0.0023
      7 C         142.8041  138.1684  165.8713 C.3     1  UNL1        0.0162
      8 C         142.2368  139.3784  166.5526 C.3     1  UNL1        0.0963
      9 S         142.7565  139.7952  167.8965 S.3     1  UNL1       -0.1075
     10 C         142.1891  141.0053  168.5777 C.ar    1  UNL1        0.0593
     11 C         142.7089  141.4221  169.9216 C.ar    1  UNL1        0.0092
     12 C         142.1415  142.6321  170.6028 C.ar    1  UNL1        0.0007
     13 C         141.0545  143.4252  169.9401 C.ar    1  UNL1        0.0031
     14 C         140.5347  143.0084  168.5962 C.ar    1  UNL1        0.0374
     15 C         141.1021  141.7984  167.9150 C.ar    1  UNL1        0.1444
     16 O         140.5824  141.3815  166.5710 O.3     1  UNL1       -0.4734
     17 C         141.1497  140.1716  165.8898 C.3     1  UNL1        0.1982
     18 O         139.0709  138.5041  160.5141 O.3     1  UNL1       -0.4754
     19 C         138.6277  139.5423  159.5264 C.3     1  UNL1        0.2068
     20 C         139.1202  140.9537  159.6500 C.3     1  UNL1        0.0646
     21 C         138.2597  141.9938  160.3041 C.3     1  UNL1        0.0759
     22 N         138.5123  142.3883  161.7290 N.3     1  UNL1       -0.2726
     23 C         139.7705  143.0063  162.2631 C.3     1  UNL1        0.0721
     24 C         139.5868  143.2341  163.7343 C.3     1  UNL1        0.0188
     25 C         138.2151  142.7568  164.1096 C.3     1  UNL1        0.0188
     26 C         137.5510  142.2341  162.8702 C.3     1  UNL1        0.0721
@<TRIPOS>BOND
     1     8     7    1
     2     8     9    1
     3     9    10    1
     4    10    11   ar
     5    11    12   ar
     6    12    13   ar
     7    13    14   ar
     8    14    15   ar
     9    15    16    1
    10    16    17    1
    11    17     1    1
    12     1     2   ar
    13     2     3   ar
    14     3     4   ar
    15     4    18    1
    16    18    19    1
    17    19    20    1
    18    20    21    1
    19    21    22    1
    20    22    23    1
    21    23    24    1
    22    24    25    1
    23    25    26    1
    24     4     5   ar
    25     5     6   ar
    26    17     8    1
    27     6     1   ar
    28    15    10   ar
    29    26    22    1
@<TRIPOS>MOLECULE
*****
 26 29 0 0 0
SMALL
GASTEIGER

@<TRIPOS>ATOM
      1 C         142.5194  140.2034  163.9086 C.ar    1  UNL1        0.0182
      2 C         143.0930  138.8320  163.7085 C.ar    1  UNL1        0.0023
      3 C         143.4636  138.3676  162.3312 C.ar    1  UNL1        0.0367
      4 C         143.2604  139.2746  161.1540 C.ar    1  UNL1        0.1385
      5 C         142.6868  140.6461  161.3540 C.ar    1  UNL1        0.0367
      6 C         142.3163  141.1105  162.7313 C.ar    1  UNL1        0.0023
      7 C         144.1177  142.3625  165.2441 C.3     1  UNL1        0.0162
      8 C         142.9480  141.7474  165.9537 C.3     1  UNL1        0.0963
      9 S         142.5775  142.2118  167.3310 S.3     1  UNL1       -0.1075
     10 C         141.4079  141.5966  168.0407 C.ar    1  UNL1        0.0593
     11 C         141.0374  142.0610  169.4180 C.ar    1  UNL1        0.0092
     12 C         139.8678  141.4458  170.1275 C.ar    1  UNL1        0.0007
     13 C         139.0686  140.3662  169.4597 C.ar    1  UNL1        0.0031
     14 C         139.4391  139.9019  168.0824 C.ar    1  UNL1        0.0374
     15 C         140.6087  140.5170  167.3729 C.ar    1  UNL1        0.1444
     16 O         140.9792  140.0526  165.9955 O.3     1  UNL1       -0.4734
     17 C         142.1489  140.6678  165.2859 C.3     1  UNL1        0.1982
     18 O         143.6310  138.8102  159.7766 O.3     1  UNL1       -0.4754
     19 C         142.6045  138.1461  158.9076 C.3     1  UNL1        0.2068
     20 C         141.3384  138.8694  158.5556 C.3     1  UNL1        0.0646
     21 C         140.0288  138.4091  159.1239 C.3     1  UNL1        0.0759
     22 N         139.6368  138.8011  160.5177 N.3     1  UNL1       -0.2726
     23 C         139.7756  137.9499  161.7451 C.3     1  UNL1        0.0721
     24 C         139.2618  138.7358  162.9148 C.3     1  UNL1        0.0188
     25 C         138.8055  140.0729  162.4105 C.3     1  UNL1        0.0188
     26 C         139.0373  140.1132  160.9290 C.3     1  UNL1        0.0721
@<TRIPOS>BOND
     1     8     7    1
     2     8     9    1
     3     9    10    1
     4    10    11   ar
     5    11    12   ar
     6    12    13   ar
     7    13    14   ar
     8    14    15   ar
     9    15    16    1
    10    16    17    1
    11    17     1    1
    12     1     2   ar
    13     2     3   ar
    14     3     4   ar
    15     4    18    1
    16    18    19    1
    17    19    20    1
    18    20    21    1
    19    21    22    1
    20    22    23    1
    21    23    24    1
    22    24    25    1
    23    25    26    1
    24     4     5   ar
    25     5     6   ar
    26    17     8    1
    27     6     1   ar
    28    15    10   ar
    29    26    22    1
