@<TRIPOS>MOLECULE
*****
 33 37 0 0 0
SMALL
GASTEIGER

@<TRIPOS>ATOM
      1 C         141.3616  138.4050  159.2868 C.ar    1  UNL1        0.1642
      2 N         140.1330  138.8514  158.5512 N.ar    1  UNL1       -0.2123
      3 C         139.8653  138.3482  157.1636 C.ar    1  UNL1        0.1286
      4 N         138.6367  138.7947  156.4280 N.pl3   1  UNL1       -0.3425
      5 C         140.8262  137.3986  156.5119 C.ar    1  UNL1        0.0513
      6 C         140.8272  136.7388  155.1647 C.ar    1  UNL1       -0.0155
      7 C         142.0564  135.8847  155.0679 C.ar    1  UNL1        0.0048
      8 S         142.8151  136.0165  156.3551 S.2     1  UNL1       -0.0725
      9 C         142.0548  136.9522  157.2475 C.ar    1  UNL1        0.1144
     10 N         142.3225  137.4554  158.6350 N.ar    1  UNL1       -0.2200
     11 C         142.5114  135.0267  153.9247 C.3     1  UNL1        0.0327
     12 C         141.8494  134.8110  152.5959 C.3     1  UNL1        0.0052
     13 C         140.5692  135.4001  152.0824 C.3     1  UNL1        0.0007
     14 C         139.6345  136.3502  152.7706 C.3     1  UNL1        0.0047
     15 C         139.7493  136.9461  154.1423 C.3     1  UNL1        0.0267
     16 H         138.0060  139.4179  156.8558 H       1  UNL1        0.1437
     17 H         138.4610  138.4644  155.5173 H       1  UNL1        0.1437
     18 C         141.5346  137.9723  161.8428 C.2     1  UNL1        0.0032
     19 C         141.6293  138.9081  160.6743 C.2     1  UNL1        0.0388
     20 C         140.9310  139.1989  165.5685 C.ar    1  UNL1        0.1547
     21 C         140.6632  138.6957  164.1810 C.ar    1  UNL1        0.0384
     22 C         141.8023  138.4755  163.2303 C.ar    1  UNL1        0.0032
     23 C         143.2091  138.7585  163.6670 C.ar    1  UNL1        0.0017
     24 C         143.4768  139.2617  165.0546 C.ar    1  UNL1        0.0206
     25 C         142.3378  139.4819  166.0053 C.ar    1  UNL1        0.0994
     26 N         142.6055  139.9850  167.3928 N.ar    1  UNL1       -0.2839
     27 C         142.7293  139.1426  168.6276 C.ar    1  UNL1        0.1826
     28 N         142.9967  140.0559  169.7870 N.ar    1  UNL1       -0.2280
     29 C         143.0381  141.4629  169.2688 C.ar    1  UNL1        0.0786
     30 C         143.2790  142.6970  170.0867 C.3     1  UNL1        0.0538
     31 C         142.7963  141.4191  167.7891 C.ar    1  UNL1        0.0963
     32 C         138.3778  139.3567  166.0227 C.3     1  UNL1        0.2525
     33 O         139.7918  139.4191  166.5193 O.3     1  UNL1       -0.4700
@<TRIPOS>BOND
     1    32    33    1
     2    33    20    1
     3    20    21   ar
     4    21    22   ar
     5    22    18    1
     6    18    19    2
     7    19     1    1
     8     1     2   ar
     9     2     3   ar
    10     3     4    1
    11     3     5   ar
    12     5     6   ar
    13     6     7   ar
    14     7     8   ar
    15     8     9   ar
    16     9    10   ar
    17     7    11    1
    18    11    12    1
    19    12    13    1
    20    13    14    1
    21    14    15    1
    22    22    23   ar
    23    23    24   ar
    24    24    25   ar
    25    25    26    1
    26    26    27   ar
    27    27    28   ar
    28    28    29   ar
    29    29    30    1
    30    29    31   ar
    31    25    20   ar
    32    31    26   ar
    33    10     1   ar
    34     9     5   ar
    35    15     6    1
    36     4    16    1
    37     4    17    1
@<TRIPOS>MOLECULE
*****
 33 37 0 0 0
SMALL
GASTEIGER

@<TRIPOS>ATOM
      1 C         142.4259  139.2185  163.4593 C.ar    1  UNL1        0.1642
      2 N         143.1761  138.4729  164.5229 N.ar    1  UNL1       -0.2123
      3 C         143.1042  138.9281  165.9504 C.ar    1  UNL1        0.1286
      4 N         143.8544  138.1825  167.0140 N.pl3   1  UNL1       -0.3425
      5 C         142.2823  140.1289  166.3141 C.ar    1  UNL1        0.0513
      6 C         142.0232  140.8079  167.6264 C.ar    1  UNL1       -0.0155
      7 C         141.1131  141.9730  167.3737 C.ar    1  UNL1        0.0048
      8 S         140.8095  142.0142  165.9054 S.2     1  UNL1       -0.0725
      9 C         141.5321  140.8745  165.2505 C.ar    1  UNL1        0.1144
     10 N         141.6039  140.4193  163.8230 N.ar    1  UNL1       -0.2200
     11 C         140.5639  142.9616  168.3592 C.3     1  UNL1        0.0327
     12 C         140.7893  143.0292  169.8407 C.3     1  UNL1        0.0052
     13 C         141.6195  142.1249  170.7024 C.3     1  UNL1        0.0007
     14 C         142.4294  140.9296  170.2958 C.3     1  UNL1        0.0047
     15 C         142.6091  140.3435  168.9268 C.3     1  UNL1        0.0267
     16 H         144.3939  137.3943  166.7752 H       1  UNL1        0.1437
     17 H         143.8073  138.4812  167.9509 H       1  UNL1        0.1437
     18 C         141.2828  138.8466  161.1560 C.2     1  UNL1        0.0032
     19 C         142.4977  138.7632  162.0318 C.2     1  UNL1        0.0388
     20 C         140.2142  138.0279  157.4227 C.ar    1  UNL1        0.1547
     21 C         140.1422  138.4832  158.8501 C.ar    1  UNL1        0.0384
     22 C         141.3547  138.3914  159.7285 C.ar    1  UNL1        0.0032
     23 C         142.6389  137.8444  159.1795 C.ar    1  UNL1        0.0017
     24 C         142.7108  137.3891  157.7520 C.ar    1  UNL1        0.0206
     25 C         141.4984  137.4809  156.8736 C.ar    1  UNL1        0.0994
     26 N         141.5702  137.0257  155.4462 N.ar    1  UNL1       -0.2839
     27 C         142.0855  137.8294  154.2893 C.ar    1  UNL1        0.1826
     28 N         141.9731  136.9873  153.0531 N.ar    1  UNL1       -0.2280
     29 C         141.3884  135.6630  153.4460 C.ar    1  UNL1        0.0786
     30 C         141.1028  134.5164  152.5221 C.3     1  UNL1        0.0538
     31 C         141.1394  135.6868  154.9250 C.ar    1  UNL1        0.0963
     32 C         138.7775  139.3396  155.7006 C.3     1  UNL1        0.2525
     33 O         139.0017  138.1197  156.5442 O.3     1  UNL1       -0.4700
@<TRIPOS>BOND
     1    32    33    1
     2    33    20    1
     3    20    21   ar
     4    21    22   ar
     5    22    18    1
     6    18    19    2
     7    19     1    1
     8     1     2   ar
     9     2     3   ar
    10     3     4    1
    11     3     5   ar
    12     5     6   ar
    13     6     7   ar
    14     7     8   ar
    15     8     9   ar
    16     9    10   ar
    17     7    11    1
    18    11    12    1
    19    12    13    1
    20    13    14    1
    21    14    15    1
    22    22    23   ar
    23    23    24   ar
    24    24    25   ar
    25    25    26    1
    26    26    27   ar
    27    27    28   ar
    28    28    29   ar
    29    29    30    1
    30    29    31   ar
    31    25    20   ar
    32    31    26   ar
    33    10     1   ar
    34     9     5   ar
    35    15     6    1
    36     4    16    1
    37     4    17    1
@<TRIPOS>MOLECULE
*****
 33 37 0 0 0
SMALL
GASTEIGER

@<TRIPOS>ATOM
      1 C         141.5224  139.4321  163.1499 C.ar    1  UNL1        0.1642
      2 N         140.6387  140.6403  163.2475 N.ar    1  UNL1       -0.2123
      3 C         140.5090  141.3712  164.5510 C.ar    1  UNL1        0.1286
      4 N         139.6253  142.5793  164.6487 N.pl3   1  UNL1       -0.3425
      5 C         141.2629  140.8939  165.7567 C.ar    1  UNL1        0.0513
      6 C         141.3326  141.4065  167.1648 C.ar    1  UNL1       -0.0155
      7 C         142.2593  140.5152  167.9371 C.ar    1  UNL1        0.0048
      8 S         142.7624  139.4517  167.0066 S.2     1  UNL1       -0.0725
      9 C         142.1466  139.6858  165.6590 C.ar    1  UNL1        0.1144
     10 N         142.2764  138.9549  164.3556 N.ar    1  UNL1       -0.2200
     11 C         142.6590  140.6072  169.3800 C.3     1  UNL1        0.0327
     12 C         142.2306  141.6134  170.4068 C.3     1  UNL1        0.0052
     13 C         141.2969  142.7759  170.2442 C.3     1  UNL1        0.0007
     14 C         140.5607  143.2195  169.0148 C.3     1  UNL1        0.0047
     15 C         140.5766  142.6100  167.6443 C.3     1  UNL1        0.0267
     16 H         139.1305  142.8925  163.8573 H       1  UNL1        0.1437
     17 H         139.5402  143.0590  165.5042 H       1  UNL1        0.1437
     18 C         141.0559  139.2819  160.5984 C.2     1  UNL1        0.0032
     19 C         141.6522  138.7013  161.8464 C.2     1  UNL1        0.0388
     20 C         140.1203  137.6598  157.0994 C.ar    1  UNL1        0.1547
     21 C         139.9905  138.3907  158.4028 C.ar    1  UNL1        0.0384
     22 C         141.1857  138.5510  159.2950 C.ar    1  UNL1        0.0032
     23 C         142.5105  137.9804  158.8837 C.ar    1  UNL1        0.0017
     24 C         142.6403  137.2495  157.5802 C.ar    1  UNL1        0.0206
     25 C         141.4452  137.0892  156.6880 C.ar    1  UNL1        0.0994
     26 N         141.5750  136.3584  155.3846 N.ar    1  UNL1       -0.2839
     27 C         141.9605  136.9651  154.0681 C.ar    1  UNL1        0.1826
     28 N         141.9658  135.8742  153.0387 N.ar    1  UNL1       -0.2280
     29 C         141.5834  134.5931  153.7189 C.ar    1  UNL1        0.0786
     30 C         141.4636  133.2489  153.0642 C.3     1  UNL1        0.0538
     31 C         141.3419  134.8924  155.1688 C.ar    1  UNL1        0.0963
     32 C         138.6538  138.5063  155.1289 C.3     1  UNL1        0.2525
     33 O         138.9252  137.4994  156.2072 O.3     1  UNL1       -0.4700
@<TRIPOS>BOND
     1    32    33    1
     2    33    20    1
     3    20    21   ar
     4    21    22   ar
     5    22    18    1
     6    18    19    2
     7    19     1    1
     8     1     2   ar
     9     2     3   ar
    10     3     4    1
    11     3     5   ar
    12     5     6   ar
    13     6     7   ar
    14     7     8   ar
    15     8     9   ar
    16     9    10   ar
    17     7    11    1
    18    11    12    1
    19    12    13    1
    20    13    14    1
    21    14    15    1
    22    22    23   ar
    23    23    24   ar
    24    24    25   ar
    25    25    26    1
    26    26    27   ar
    27    27    28   ar
    28    28    29   ar
    29    29    30    1
    30    29    31   ar
    31    25    20   ar
    32    31    26   ar
    33    10     1   ar
    34     9     5   ar
    35    15     6    1
    36     4    16    1
    37     4    17    1
@<TRIPOS>MOLECULE
*****
 33 37 0 0 0
SMALL
GASTEIGER

@<TRIPOS>ATOM
      1 C         140.6811  139.3118  162.6652 C.ar    1  UNL1        0.1642
      2 N         141.3310  140.6514  162.8471 N.ar    1  UNL1       -0.2123
      3 C         141.2670  141.3416  164.1773 C.ar    1  UNL1        0.1286
      4 N         141.9169  142.6812  164.3592 N.pl3   1  UNL1       -0.3425
      5 C         140.5532  140.6921  165.3257 C.ar    1  UNL1        0.0513
      6 C         140.3269  141.1285  166.7429 C.ar    1  UNL1       -0.0155
      7 C         139.5373  140.0585  167.4368 C.ar    1  UNL1        0.0048
      8 S         139.2755  138.9609  166.4486 S.2     1  UNL1       -0.0725
      9 C         139.9034  139.3525  165.1438 C.ar    1  UNL1        0.1144
     10 N         139.9673  138.6623  163.8135 N.ar    1  UNL1       -0.2200
     11 C         139.0595  140.0219  168.8582 C.3     1  UNL1        0.0327
     12 C         139.2535  141.0463  169.9368 C.3     1  UNL1        0.0052
     13 C         139.9730  142.3601  169.8602 C.3     1  UNL1        0.0007
     14 C         140.6764  142.9742  168.6862 C.3     1  UNL1        0.0047
     15 C         140.8339  142.4261  167.2989 C.3     1  UNL1        0.0267
     16 H         142.3854  143.1075  163.6055 H       1  UNL1        0.1437
     17 H         141.8749  143.1342  165.2323 H       1  UNL1        0.1437
     18 C         141.2892  139.3461  160.1395 C.2     1  UNL1        0.0032
     19 C         140.7451  138.6216  161.3349 C.2     1  UNL1        0.0388
     20 C         142.7434  137.7306  156.8191 C.ar    1  UNL1        0.1547
     21 C         142.6796  138.4208  158.1493 C.ar    1  UNL1        0.0384
     22 C         141.3532  138.6559  158.8093 C.ar    1  UNL1        0.0032
     23 C         140.0908  138.2008  158.1390 C.ar    1  UNL1        0.0017
     24 C         140.1548  137.5106  156.8088 C.ar    1  UNL1        0.0206
     25 C         141.4810  137.2755  156.1487 C.ar    1  UNL1        0.0994
     26 N         141.5450  136.5853  154.8185 N.ar    1  UNL1       -0.2839
     27 C         141.6572  137.2561  153.4817 C.ar    1  UNL1        0.1826
     28 N         141.6895  136.1886  152.4285 N.ar    1  UNL1       -0.2280
     29 C         141.5973  134.8578  153.1145 C.ar    1  UNL1        0.0786
     30 C         141.5949  133.5173  152.4415 C.3     1  UNL1        0.0538
     31 C         141.5080  135.1030  154.5916 C.ar    1  UNL1        0.0963
     32 C         144.6451  138.5332  155.2413 C.3     1  UNL1        0.2525
     33 O         144.0698  137.4955  156.1590 O.3     1  UNL1       -0.4700
@<TRIPOS>BOND
     1    32    33    1
     2    33    20    1
     3    20    21   ar
     4    21    22   ar
     5    22    18    1
     6    18    19    2
     7    19     1    1
     8     1     2   ar
     9     2     3   ar
    10     3     4    1
    11     3     5   ar
    12     5     6   ar
    13     6     7   ar
    14     7     8   ar
    15     8     9   ar
    16     9    10   ar
    17     7    11    1
    18    11    12    1
    19    12    13    1
    20    13    14    1
    21    14    15    1
    22    22    23   ar
    23    23    24   ar
    24    24    25   ar
    25    25    26    1
    26    26    27   ar
    27    27    28   ar
    28    28    29   ar
    29    29    30    1
    30    29    31   ar
    31    25    20   ar
    32    31    26   ar
    33    10     1   ar
    34     9     5   ar
    35    15     6    1
    36     4    16    1
    37     4    17    1
@<TRIPOS>MOLECULE
*****
 33 37 0 0 0
SMALL
GASTEIGER

@<TRIPOS>ATOM
      1 C         142.0353  136.9213  157.2179 C.ar    1  UNL1        0.1642
      2 N         141.3527  136.8032  155.8876 N.ar    1  UNL1       -0.2123
      3 C         141.5942  135.6000  155.0249 C.ar    1  UNL1        0.1286
      4 N         140.9115  135.4818  153.6945 N.pl3   1  UNL1       -0.3425
      5 C         142.5184  134.5151  155.4927 C.ar    1  UNL1        0.0513
      6 C         142.9475  133.2222  154.8648 C.ar    1  UNL1       -0.0155
      7 C         143.8954  132.5414  155.8071 C.ar    1  UNL1        0.0048
      8 S         144.0521  133.4135  157.0174 S.2     1  UNL1       -0.0725
      9 C         143.2011  134.6333  156.8231 C.ar    1  UNL1        0.1144
     10 N         142.9595  135.8365  157.6857 N.ar    1  UNL1       -0.2200
     11 C         144.5984  131.2270  155.6391 C.3     1  UNL1        0.0327
     12 C         144.5271  130.2688  154.4871 C.3     1  UNL1        0.0052
     13 C         143.7352  130.3884  153.2189 C.3     1  UNL1        0.0007
     14 C         142.8190  131.4956  152.7892 C.3     1  UNL1        0.0047
     15 C         142.4685  132.7568  153.5217 C.3     1  UNL1        0.0267
     16 H         140.3049  136.1939  153.3875 H       1  UNL1        0.1437
     17 H         141.0700  134.6921  153.1283 H       1  UNL1        0.1437
     18 C         140.4593  138.3213  158.7366 C.2     1  UNL1        0.0032
     19 C         141.7938  138.1245  158.0806 C.2     1  UNL1        0.0388
     20 C         141.1203  141.3733  161.1857 C.ar    1  UNL1        0.1547
     21 C         141.3619  140.1701  160.3231 C.ar    1  UNL1        0.0384
     22 C         140.2178  139.5245  159.5992 C.ar    1  UNL1        0.0032
     23 C         138.8321  140.0819  159.7379 C.ar    1  UNL1        0.0017
     24 C         138.5906  141.2851  160.6005 C.ar    1  UNL1        0.0206
     25 C         139.7346  141.9308  161.3245 C.ar    1  UNL1        0.0994
     26 N         139.4931  143.1339  162.1871 N.ar    1  UNL1       -0.2839
     27 C         139.5636  144.5651  161.7438 C.ar    1  UNL1        0.1826
     28 N         139.2528  145.4328  162.9271 N.ar    1  UNL1       -0.2280
     29 C         138.9902  144.5378  164.1019 C.ar    1  UNL1        0.0786
     30 C         138.6405  144.9852  165.4903 C.3     1  UNL1        0.0538
     31 C         139.1387  143.1170  163.6445 C.ar    1  UNL1        0.0963
     32 C         143.0437  143.1186  161.2512 C.3     1  UNL1        0.2525
     33 O         142.2644  142.0190  161.9097 O.3     1  UNL1       -0.4700
@<TRIPOS>BOND
     1    32    33    1
     2    33    20    1
     3    20    21   ar
     4    21    22   ar
     5    22    18    1
     6    18    19    2
     7    19     1    1
     8     1     2   ar
     9     2     3   ar
    10     3     4    1
    11     3     5   ar
    12     5     6   ar
    13     6     7   ar
    14     7     8   ar
    15     8     9   ar
    16     9    10   ar
    17     7    11    1
    18    11    12    1
    19    12    13    1
    20    13    14    1
    21    14    15    1
    22    22    23   ar
    23    23    24   ar
    24    24    25   ar
    25    25    26    1
    26    26    27   ar
    27    27    28   ar
    28    28    29   ar
    29    29    30    1
    30    29    31   ar
    31    25    20   ar
    32    31    26   ar
    33    10     1   ar
    34     9     5   ar
    35    15     6    1
    36     4    16    1
    37     4    17    1
@<TRIPOS>MOLECULE
*****
 33 37 0 0 0
SMALL
GASTEIGER

@<TRIPOS>ATOM
      1 C         143.0304  138.4861  159.8097 C.ar    1  UNL1        0.1642
      2 N         142.5690  139.7720  159.1904 N.ar    1  UNL1       -0.2123
      3 C         142.6870  141.0573  159.9547 C.ar    1  UNL1        0.1286
      4 N         142.2255  142.3432  159.3354 N.pl3   1  UNL1       -0.3425
      5 C         143.2664  141.0566  161.3382 C.ar    1  UNL1        0.0513
      6 C         143.5068  142.1594  162.3263 C.ar    1  UNL1       -0.0155
      7 C         144.1168  141.5550  163.5560 C.ar    1  UNL1        0.0048
      8 S         144.2535  140.0788  163.3282 S.2     1  UNL1       -0.0725
      9 C         143.7279  139.7708  161.9575 C.ar    1  UNL1        0.1144
     10 N         143.6099  138.4855  161.1932 N.ar    1  UNL1       -0.2200
     11 C         144.5399  142.2383  164.8227 C.3     1  UNL1        0.0327
     12 C         144.4573  143.6947  165.1722 C.3     1  UNL1        0.0052
     13 C         143.9314  144.8274  164.3415 C.3     1  UNL1        0.0007
     14 C         143.3581  144.7837  162.9560 C.3     1  UNL1        0.0047
     15 C         143.1691  143.5963  162.0592 C.3     1  UNL1        0.0267
     16 H         141.8452  142.3436  158.4273 H       1  UNL1        0.1437
     17 H         142.3030  143.1868  159.8370 H       1  UNL1        0.1437
     18 C         142.5872  137.2260  157.5813 C.2     1  UNL1        0.0032
     19 C         142.9124  137.2008  159.0453 C.2     1  UNL1        0.0388
     20 C         143.2260  133.4896  156.4063 C.ar    1  UNL1        0.1547
     21 C         143.3441  134.7748  157.1706 C.ar    1  UNL1        0.0384
     22 C         142.4692  135.9407  156.8170 C.ar    1  UNL1        0.0032
     23 C         141.4762  135.8214  155.6990 C.ar    1  UNL1        0.0017
     24 C         141.3582  134.5361  154.9347 C.ar    1  UNL1        0.0206
     25 C         142.2331  133.3702  155.2883 C.ar    1  UNL1        0.0994
     26 N         142.1151  132.0850  154.5240 N.ar    1  UNL1       -0.2839
     27 C         142.9680  131.6682  153.3627 C.ar    1  UNL1        0.1826
     28 N         142.5035  130.3165  152.9078 N.ar    1  UNL1       -0.2280
     29 C         141.3634  129.8977  153.7881 C.ar    1  UNL1        0.0786
     30 C         140.5978  128.6118  153.6871 C.3     1  UNL1        0.0538
     31 C         141.1234  130.9907  154.7869 C.ar    1  UNL1        0.0963
     32 C         145.0450  132.4195  157.9217 C.3     1  UNL1        0.2525
     33 O         144.1009  132.3236  156.7599 O.3     1  UNL1       -0.4700
@<TRIPOS>BOND
     1    32    33    1
     2    33    20    1
     3    20    21   ar
     4    21    22   ar
     5    22    18    1
     6    18    19    2
     7    19     1    1
     8     1     2   ar
     9     2     3   ar
    10     3     4    1
    11     3     5   ar
    12     5     6   ar
    13     6     7   ar
    14     7     8   ar
    15     8     9   ar
    16     9    10   ar
    17     7    11    1
    18    11    12    1
    19    12    13    1
    20    13    14    1
    21    14    15    1
    22    22    23   ar
    23    23    24   ar
    24    24    25   ar
    25    25    26    1
    26    26    27   ar
    27    27    28   ar
    28    28    29   ar
    29    29    30    1
    30    29    31   ar
    31    25    20   ar
    32    31    26   ar
    33    10     1   ar
    34     9     5   ar
    35    15     6    1
    36     4    16    1
    37     4    17    1
@<TRIPOS>MOLECULE
*****
 33 37 0 0 0
SMALL
GASTEIGER

@<TRIPOS>ATOM
      1 C         134.7050  140.9269  155.9859 C.ar    1  UNL1        0.1642
      2 N         134.6683  139.9087  157.0868 N.ar    1  UNL1       -0.2123
      3 C         133.3520  139.3899  157.5850 C.ar    1  UNL1        0.1286
      4 N         133.3153  138.3717  158.6859 N.pl3   1  UNL1       -0.3425
      5 C         132.0724  139.8892  156.9822 C.ar    1  UNL1        0.0513
      6 C         130.6356  139.5639  157.2649 C.ar    1  UNL1       -0.0155
      7 C         129.7845  140.3810  156.3388 C.ar    1  UNL1        0.0048
      8 S         130.6950  141.2113  155.4837 S.2     1  UNL1       -0.0725
      9 C         132.1091  140.9074  155.8813 C.ar    1  UNL1        0.1144
     10 N         133.4254  141.4262  155.3831 N.ar    1  UNL1       -0.2200
     11 C         128.2888  140.4154  156.2291 C.3     1  UNL1        0.0327
     12 C         127.2751  139.6412  157.0185 C.3     1  UNL1        0.0052
     13 C         127.5066  138.6415  158.1124 C.3     1  UNL1        0.0007
     14 C         128.8090  138.1689  158.6873 C.3     1  UNL1        0.0047
     15 C         130.2016  138.5794  158.3102 C.3     1  UNL1        0.0267
     16 H         134.1551  138.0440  159.0815 H       1  UNL1        0.1437
     17 H         132.4514  138.0312  159.0129 H       1  UNL1        0.1437
     18 C         136.2287  142.9211  155.3142 C.2     1  UNL1        0.0032
     19 C         136.0213  141.4457  155.4877 C.2     1  UNL1        0.0388
     20 C         139.3810  145.2782  154.8067 C.ar    1  UNL1        0.1547
     21 C         138.0646  144.7594  155.3049 C.ar    1  UNL1        0.0384
     22 C         137.5451  143.4400  154.8161 C.ar    1  UNL1        0.0032
     23 C         138.3417  142.6393  153.8291 C.ar    1  UNL1        0.0017
     24 C         139.6581  143.1581  153.3309 C.ar    1  UNL1        0.0206
     25 C         140.1777  144.4775  153.8197 C.ar    1  UNL1        0.0994
     26 N         141.4940  144.9964  153.3215 N.ar    1  UNL1       -0.2839
     27 C         141.6924  146.1868  152.4309 C.ar    1  UNL1        0.1826
     28 N         143.1640  146.3420  152.1855 N.ar    1  UNL1       -0.2280
     29 C         143.8751  145.2474  152.9245 C.ar    1  UNL1        0.0786
     30 C         145.3580  145.0239  152.9558 C.3     1  UNL1        0.0538
     31 C         142.8430  144.4158  153.6266 C.ar    1  UNL1        0.0963
     32 C         139.0296  147.8172  155.2310 C.3     1  UNL1        0.2525
     33 O         139.9006  146.5977  155.2956 O.3     1  UNL1       -0.4700
@<TRIPOS>BOND
     1    32    33    1
     2    33    20    1
     3    20    21   ar
     4    21    22   ar
     5    22    18    1
     6    18    19    2
     7    19     1    1
     8     1     2   ar
     9     2     3   ar
    10     3     4    1
    11     3     5   ar
    12     5     6   ar
    13     6     7   ar
    14     7     8   ar
    15     8     9   ar
    16     9    10   ar
    17     7    11    1
    18    11    12    1
    19    12    13    1
    20    13    14    1
    21    14    15    1
    22    22    23   ar
    23    23    24   ar
    24    24    25   ar
    25    25    26    1
    26    26    27   ar
    27    27    28   ar
    28    28    29   ar
    29    29    30    1
    30    29    31   ar
    31    25    20   ar
    32    31    26   ar
    33    10     1   ar
    34     9     5   ar
    35    15     6    1
    36     4    16    1
    37     4    17    1
@<TRIPOS>MOLECULE
*****
 33 37 0 0 0
SMALL
GASTEIGER

@<TRIPOS>ATOM
      1 C         141.1324  144.0148  159.7557 C.ar    1  UNL1        0.1642
      2 N         142.3179  143.4246  159.0512 N.ar    1  UNL1       -0.2123
      3 C         142.6327  143.8325  157.6424 C.ar    1  UNL1        0.1286
      4 N         143.8181  143.2423  156.9379 N.pl3   1  UNL1       -0.3425
      5 C         141.7620  144.8305  156.9383 C.ar    1  UNL1        0.0513
      6 C         141.8231  145.4202  155.5603 C.ar    1  UNL1       -0.0155
      7 C         140.6755  146.3747  155.4134 C.ar    1  UNL1        0.0048
      8 S         139.9051  146.3751  156.7003 S.2     1  UNL1       -0.0725
      9 C         140.5766  145.4208  157.6428 C.ar    1  UNL1        0.1144
     10 N         140.2618  145.0129  159.0516 N.ar    1  UNL1       -0.2200
     11 C         140.3017  147.2122  154.2263 C.3     1  UNL1        0.0327
     12 C         140.9834  147.3017  152.8930 C.3     1  UNL1        0.0052
     13 C         142.2070  146.5761  152.4177 C.3     1  UNL1        0.0007
     14 C         143.0513  145.5816  153.1580 C.3     1  UNL1        0.0047
     15 C         142.8805  145.0672  154.5566 C.3     1  UNL1        0.0267
     16 H         144.3895  142.5872  157.4001 H       1  UNL1        0.1437
     17 H         144.0248  143.5100  156.0133 H       1  UNL1        0.1437
     18 C         141.6914  144.0699  162.2923 C.2     1  UNL1        0.0032
     19 C         140.8176  143.6069  161.1645 C.2     1  UNL1        0.0388
     20 C         142.0015  142.3562  165.8584 C.ar    1  UNL1        0.1547
     21 C         142.3164  142.7640  164.4496 C.ar    1  UNL1        0.0384
     22 C         141.3766  143.6620  163.7011 C.ar    1  UNL1        0.0032
     23 C         140.1220  144.1522  164.3612 C.ar    1  UNL1        0.0017
     24 C         139.8072  143.7443  165.7700 C.ar    1  UNL1        0.0206
     25 C         140.7469  142.8463  166.5186 C.ar    1  UNL1        0.0994
     26 N         140.4321  142.4385  167.9273 N.ar    1  UNL1       -0.2839
     27 C         140.4204  143.3415  169.1249 C.ar    1  UNL1        0.1826
     28 N         140.0548  142.5171  170.3235 N.ar    1  UNL1       -0.2280
     29 C         139.8405  141.1045  169.8666 C.ar    1  UNL1        0.0786
     30 C         139.4599  139.9443  170.7378 C.3     1  UNL1        0.0538
     31 C         140.0737  141.0560  168.3857 C.ar    1  UNL1        0.0963
     32 C         143.0541  140.0104  166.2312 C.3     1  UNL1        0.2525
     33 O         142.9412  141.4582  166.6071 O.3     1  UNL1       -0.4700
@<TRIPOS>BOND
     1    32    33    1
     2    33    20    1
     3    20    21   ar
     4    21    22   ar
     5    22    18    1
     6    18    19    2
     7    19     1    1
     8     1     2   ar
     9     2     3   ar
    10     3     4    1
    11     3     5   ar
    12     5     6   ar
    13     6     7   ar
    14     7     8   ar
    15     8     9   ar
    16     9    10   ar
    17     7    11    1
    18    11    12    1
    19    12    13    1
    20    13    14    1
    21    14    15    1
    22    22    23   ar
    23    23    24   ar
    24    24    25   ar
    25    25    26    1
    26    26    27   ar
    27    27    28   ar
    28    28    29   ar
    29    29    30    1
    30    29    31   ar
    31    25    20   ar
    32    31    26   ar
    33    10     1   ar
    34     9     5   ar
    35    15     6    1
    36     4    16    1
    37     4    17    1
@<TRIPOS>MOLECULE
*****
 33 37 0 0 0
SMALL
GASTEIGER

@<TRIPOS>ATOM
      1 C         142.7832  135.9097  157.2805 C.ar    1  UNL1        0.1642
      2 N         143.6276  134.9156  158.0213 N.ar    1  UNL1       -0.2123
      3 C         143.9911  133.6114  157.3755 C.ar    1  UNL1        0.1286
      4 N         144.8354  132.6173  158.1163 N.pl3   1  UNL1       -0.3425
      5 C         143.5102  133.3014  155.9889 C.ar    1  UNL1        0.0513
      6 C         143.7067  132.1078  155.1018 C.ar    1  UNL1       -0.0155
      7 C         142.9838  132.3644  153.8129 C.ar    1  UNL1        0.0048
      8 S         142.3405  133.7164  153.9032 S.2     1  UNL1       -0.0725
      9 C         142.6659  134.2955  155.2481 C.ar    1  UNL1        0.1144
     10 N         142.3024  135.5997  155.8939 N.ar    1  UNL1       -0.2200
     11 C         142.8782  131.4779  152.6074 C.3     1  UNL1        0.0327
     12 C         143.4695  130.1160  152.3932 C.3     1  UNL1        0.0052
     13 C         144.3123  129.3044  153.3316 C.3     1  UNL1        0.0007
     14 C         144.7721  129.6539  154.7160 C.3     1  UNL1        0.0047
     15 C         144.5026  130.9016  155.5038 C.3     1  UNL1        0.0267
     16 H         145.1510  132.8208  159.0264 H       1  UNL1        0.1437
     17 H         145.0740  131.7613  157.6925 H       1  UNL1        0.1437
     18 C         142.8217  137.4857  159.3456 C.2     1  UNL1        0.0032
     19 C         142.4198  137.2139  157.9263 C.2     1  UNL1        0.0388
     20 C         142.9561  140.6561  161.7289 C.ar    1  UNL1        0.1547
     21 C         143.3197  139.3519  161.0832 C.ar    1  UNL1        0.0384
     22 C         142.4582  138.7898  159.9914 C.ar    1  UNL1        0.0032
     23 C         141.2333  139.5319  159.5454 C.ar    1  UNL1        0.0017
     24 C         140.8698  140.8361  160.1912 C.ar    1  UNL1        0.0206
     25 C         141.7312  141.3982  161.2830 C.ar    1  UNL1        0.0994
     26 N         141.3677  142.7023  161.9287 N.ar    1  UNL1       -0.2839
     27 C         141.9296  144.0476  161.5761 C.ar    1  UNL1        0.1826
     28 N         141.2877  145.0669  162.4700 N.ar    1  UNL1       -0.2280
     29 C         140.3290  144.3515  163.3751 C.ar    1  UNL1        0.0786
     30 C         139.4715  144.9861  164.4296 C.3     1  UNL1        0.0538
     31 C         140.3785  142.8902  163.0406 C.ar    1  UNL1        0.0963
     32 C         145.1543  141.8131  162.4901 C.3     1  UNL1        0.2525
     33 O         143.8176  141.2183  162.8207 O.3     1  UNL1       -0.4700
@<TRIPOS>BOND
     1    32    33    1
     2    33    20    1
     3    20    21   ar
     4    21    22   ar
     5    22    18    1
     6    18    19    2
     7    19     1    1
     8     1     2   ar
     9     2     3   ar
    10     3     4    1
    11     3     5   ar
    12     5     6   ar
    13     6     7   ar
    14     7     8   ar
    15     8     9   ar
    16     9    10   ar
    17     7    11    1
    18    11    12    1
    19    12    13    1
    20    13    14    1
    21    14    15    1
    22    22    23   ar
    23    23    24   ar
    24    24    25   ar
    25    25    26    1
    26    26    27   ar
    27    27    28   ar
    28    28    29   ar
    29    29    30    1
    30    29    31   ar
    31    25    20   ar
    32    31    26   ar
    33    10     1   ar
    34     9     5   ar
    35    15     6    1
    36     4    16    1
    37     4    17    1
