@<TRIPOS>MOLECULE
*****
 24 26 0 0 0
SMALL
GASTEIGER

@<TRIPOS>ATOM
      1 P         141.0526  141.4128  164.5896 P.3     1  UNL1        0.2234
      2 O         139.9568  141.9054  163.6914 O.2     1  UNL1       -0.2905
      3 C         141.8605  142.6369  164.2754 C.ar    1  UNL1        0.0496
      4 C         141.1877  143.9737  164.1729 C.ar    1  UNL1        0.0046
      5 C         141.9956  145.1978  163.8587 C.ar    1  UNL1        0.0002
      6 C         143.4763  145.0853  163.6469 C.ar    1  UNL1        0.0000
      7 C         144.1491  143.7486  163.7493 C.ar    1  UNL1        0.0002
      8 C         143.3412  142.5243  164.0636 C.ar    1  UNL1        0.0046
      9 C         140.2447  140.1887  164.9038 C.ar    1  UNL1        0.0496
     10 C         138.9433  140.3171  165.6387 C.ar    1  UNL1        0.0046
     11 C         138.1354  139.0930  165.9529 C.ar    1  UNL1        0.0002
     12 C         138.6288  137.7404  165.5323 C.ar    1  UNL1        0.0000
     13 C         139.9301  137.6119  164.7975 C.ar    1  UNL1        0.0002
     14 C         140.7381  138.8360  164.4832 C.ar    1  UNL1        0.0046
     15 N         142.1483  140.9202  165.4877 N.pl3   1  UNL1       -0.2869
     16 H         142.9668  140.5344  165.0997 H       1  UNL1        0.1540
     17 C         141.2511  142.3421  169.0826 C.ar    1  UNL1        0.0697
     18 C         141.6946  141.2058  169.9557 C.ar    1  UNL1        0.0104
     19 C         142.2894  139.9744  169.3394 C.ar    1  UNL1        0.0020
     20 C         142.4406  139.8792  167.8501 C.ar    1  UNL1        0.0147
     21 C         141.9971  141.0154  166.9770 C.ar    1  UNL1        0.0504
     22 C         141.4023  142.2469  167.5933 C.ar    1  UNL1        0.0249
     23 N         140.0615  144.8049  170.3152 N.1     1  UNL1       -0.1908
     24 C         140.6563  143.5735  169.6989 C.1     1  UNL1        0.1005
@<TRIPOS>BOND
     1    23    24    3
     2    24    17    1
     3    17    18   ar
     4    18    19   ar
     5    19    20   ar
     6    20    21   ar
     7    21    15    1
     8    15     1    1
     9     1     2    2
    10     1     3    1
    11     3     4   ar
    12     4     5   ar
    13     5     6   ar
    14     6     7   ar
    15     7     8   ar
    16     1     9    1
    17     9    10   ar
    18    10    11   ar
    19    11    12   ar
    20    12    13   ar
    21    13    14   ar
    22    21    22   ar
    23    22    17   ar
    24     8     3   ar
    25    14     9   ar
    26    15    16    1
@<TRIPOS>MOLECULE
*****
 24 26 0 0 0
SMALL
GASTEIGER

@<TRIPOS>ATOM
      1 P         141.0330  141.4413  164.5713 P.3     1  UNL1        0.2234
      2 O         139.9200  141.9348  163.6950 O.2     1  UNL1       -0.2905
      3 C         140.2280  140.2209  164.9066 C.ar    1  UNL1        0.0496
      4 C         138.9363  140.3573  165.6571 C.ar    1  UNL1        0.0046
      5 C         138.1313  139.1369  165.9924 C.ar    1  UNL1        0.0002
      6 C         138.6178  137.7800  165.5773 C.ar    1  UNL1        0.0000
      7 C         139.9094  137.6436  164.8268 C.ar    1  UNL1        0.0002
      8 C         140.7145  138.8641  164.4915 C.ar    1  UNL1        0.0046
      9 C         141.8380  142.6617  164.2360 C.ar    1  UNL1        0.0496
     10 C         143.3031  142.5356  163.9393 C.ar    1  UNL1        0.0046
     11 C         144.1081  143.7560  163.6040 C.ar    1  UNL1        0.0002
     12 C         143.4482  145.1025  163.5654 C.ar    1  UNL1        0.0000
     13 C         141.9833  145.2286  163.8621 C.ar    1  UNL1        0.0002
     14 C         141.1782  144.0082  164.1974 C.ar    1  UNL1        0.0046
     15 N         142.1459  140.9479  165.4476 N.pl3   1  UNL1       -0.2869
     16 H         142.9561  140.5612  165.0435 H       1  UNL1        0.1540
     17 C         141.2913  142.3576  169.0577 C.ar    1  UNL1        0.0697
     18 C         141.7816  141.2351  169.9236 C.ar    1  UNL1        0.0104
     19 C         142.3933  140.0170  169.2976 C.ar    1  UNL1        0.0020
     20 C         142.5147  139.9213  167.8056 C.ar    1  UNL1        0.0147
     21 C         142.0245  141.0436  166.9396 C.ar    1  UNL1        0.0504
     22 C         141.4127  142.2618  167.5657 C.ar    1  UNL1        0.0249
     23 N         140.0679  144.7938  170.3098 N.1     1  UNL1       -0.1908
     24 C         140.6796  143.5757  169.6837 C.1     1  UNL1        0.1005
@<TRIPOS>BOND
     1    23    24    3
     2    24    17    1
     3    17    18   ar
     4    18    19   ar
     5    19    20   ar
     6    20    21   ar
     7    21    15    1
     8    15     1    1
     9     1     2    2
    10     1     3    1
    11     3     4   ar
    12     4     5   ar
    13     5     6   ar
    14     6     7   ar
    15     7     8   ar
    16     1     9    1
    17     9    10   ar
    18    10    11   ar
    19    11    12   ar
    20    12    13   ar
    21    13    14   ar
    22    21    22   ar
    23    22    17   ar
    24     8     3   ar
    25    14     9   ar
    26    15    16    1
@<TRIPOS>MOLECULE
*****
 24 26 0 0 0
SMALL
GASTEIGER

@<TRIPOS>ATOM
      1 P         141.4477  141.7434  164.6683 P.3     1  UNL1        0.2234
      2 O         140.8884  140.8713  163.5835 O.2     1  UNL1       -0.2905
      3 C         142.7035  140.9232  164.6803 C.ar    1  UNL1        0.0496
      4 C         143.9757  141.4913  164.1246 C.ar    1  UNL1        0.0046
      5 C         145.2315  140.6711  164.1365 C.ar    1  UNL1        0.0002
      6 C         145.2152  139.2827  164.7042 C.ar    1  UNL1        0.0000
      7 C         143.9430  138.7146  165.2598 C.ar    1  UNL1        0.0002
      8 C         142.6871  139.5348  165.2479 C.ar    1  UNL1        0.0046
      9 C         140.1919  142.5636  164.6564 C.ar    1  UNL1        0.0496
     10 C         138.8610  141.8950  164.4784 C.ar    1  UNL1        0.0046
     11 C         137.6052  142.7152  164.4664 C.ar    1  UNL1        0.0002
     12 C         137.6803  144.2041  164.6325 C.ar    1  UNL1        0.0000
     13 C         139.0111  144.8727  164.8105 C.ar    1  UNL1        0.0002
     14 C         140.2670  144.0525  164.8224 C.ar    1  UNL1        0.0046
     15 N         142.0070  142.6154  165.7531 N.pl3   1  UNL1       -0.2869
     16 H         142.3903  143.4943  165.5296 H       1  UNL1        0.1540
     17 C         140.6988  141.1061  169.1825 C.ar    1  UNL1        0.0697
     18 C         141.9326  141.2146  170.0289 C.ar    1  UNL1        0.0104
     19 C         143.1911  141.7899  169.4499 C.ar    1  UNL1        0.0020
     20 C         143.2158  142.2569  168.0247 C.ar    1  UNL1        0.0147
     21 C         141.9822  142.1485  167.1783 C.ar    1  UNL1        0.0504
     22 C         140.7236  141.5731  167.7573 C.ar    1  UNL1        0.0249
     23 N         138.1820  139.9554  170.3404 N.1     1  UNL1       -0.1908
     24 C         139.4404  140.5308  169.7615 C.1     1  UNL1        0.1005
@<TRIPOS>BOND
     1    23    24    3
     2    24    17    1
     3    17    18   ar
     4    18    19   ar
     5    19    20   ar
     6    20    21   ar
     7    21    15    1
     8    15     1    1
     9     1     2    2
    10     1     3    1
    11     3     4   ar
    12     4     5   ar
    13     5     6   ar
    14     6     7   ar
    15     7     8   ar
    16     1     9    1
    17     9    10   ar
    18    10    11   ar
    19    11    12   ar
    20    12    13   ar
    21    13    14   ar
    22    21    22   ar
    23    22    17   ar
    24     8     3   ar
    25    14     9   ar
    26    15    16    1
@<TRIPOS>MOLECULE
*****
 24 26 0 0 0
SMALL
GASTEIGER

@<TRIPOS>ATOM
      1 P         142.2823  141.3398  166.8377 P.3     1  UNL1        0.2234
      2 O         142.8286  140.0772  167.4355 O.2     1  UNL1       -0.2905
      3 C         143.2854  141.2476  165.7263 C.ar    1  UNL1        0.0496
      4 C         144.0231  142.4745  165.2781 C.ar    1  UNL1        0.0046
      5 C         145.0262  142.3823  164.1667 C.ar    1  UNL1        0.0002
      6 C         145.2916  141.0633  163.5034 C.ar    1  UNL1        0.0000
      7 C         144.5540  139.8366  163.9516 C.ar    1  UNL1        0.0002
      8 C         143.5508  139.9287  165.0630 C.ar    1  UNL1        0.0046
      9 C         141.2792  141.4320  167.9490 C.ar    1  UNL1        0.0496
     10 C         140.3507  140.2850  168.2184 C.ar    1  UNL1        0.0046
     11 C         139.3476  140.3772  169.3298 C.ar    1  UNL1        0.0002
     12 C         139.2729  141.6163  170.1719 C.ar    1  UNL1        0.0000
     13 C         140.2013  142.7632  169.9026 C.ar    1  UNL1        0.0002
     14 C         141.2045  142.6711  168.7911 C.ar    1  UNL1        0.0046
     15 N         141.7360  142.6024  166.2399 N.pl3   1  UNL1       -0.2869
     16 H         142.2324  143.4472  166.3354 H       1  UNL1        0.1540
     17 C         138.7470  141.3444  163.9522 C.ar    1  UNL1        0.0697
     18 C         137.8281  142.5287  164.0098 C.ar    1  UNL1        0.0104
     19 C         138.2119  143.7375  164.8108 C.ar    1  UNL1        0.0020
     20 C         139.5145  143.7620  165.5541 C.ar    1  UNL1        0.0147
     21 C         140.4333  142.5778  165.4965 C.ar    1  UNL1        0.0504
     22 C         140.0496  141.3690  164.6955 C.ar    1  UNL1        0.0249
     23 N         137.9794  138.9269  162.3502 N.1     1  UNL1       -0.1908
     24 C         138.3632  140.1357  163.1512 C.1     1  UNL1        0.1005
@<TRIPOS>BOND
     1    23    24    3
     2    24    17    1
     3    17    18   ar
     4    18    19   ar
     5    19    20   ar
     6    20    21   ar
     7    21    15    1
     8    15     1    1
     9     1     2    2
    10     1     3    1
    11     3     4   ar
    12     4     5   ar
    13     5     6   ar
    14     6     7   ar
    15     7     8   ar
    16     1     9    1
    17     9    10   ar
    18    10    11   ar
    19    11    12   ar
    20    12    13   ar
    21    13    14   ar
    22    21    22   ar
    23    22    17   ar
    24     8     3   ar
    25    14     9   ar
    26    15    16    1
@<TRIPOS>MOLECULE
*****
 24 26 0 0 0
SMALL
GASTEIGER

@<TRIPOS>ATOM
      1 P         142.2624  141.3609  166.8665 P.3     1  UNL1        0.2234
      2 O         142.8104  140.0999  167.4663 O.2     1  UNL1       -0.2905
      3 C         141.2544  141.4496  167.9737 C.ar    1  UNL1        0.0496
      4 C         140.3445  140.2905  168.2543 C.ar    1  UNL1        0.0046
      5 C         139.3365  140.3792  169.3616 C.ar    1  UNL1        0.0002
      6 C         139.2385  141.6270  170.1884 C.ar    1  UNL1        0.0000
      7 C         140.1484  142.7860  169.9079 C.ar    1  UNL1        0.0002
      8 C         141.1564  142.6973  168.8005 C.ar    1  UNL1        0.0046
      9 C         143.2703  141.2722  165.7592 C.ar    1  UNL1        0.0496
     10 C         143.5554  139.9510  165.1085 C.ar    1  UNL1        0.0046
     11 C         144.5633  139.8623  164.0012 C.ar    1  UNL1        0.0002
     12 C         145.2862  141.0947  163.5445 C.ar    1  UNL1        0.0000
     13 C         145.0012  142.4159  164.1951 C.ar    1  UNL1        0.0002
     14 C         143.9932  142.5046  165.3025 C.ar    1  UNL1        0.0046
     15 N         141.7144  142.6218  166.2667 N.pl3   1  UNL1       -0.2869
     16 H         142.2078  143.4681  166.3641 H       1  UNL1        0.1540
     17 C         138.7355  141.3527  163.9720 C.ar    1  UNL1        0.0697
     18 C         137.8152  142.5362  164.0220 C.ar    1  UNL1        0.0104
     19 C         138.1946  143.7481  164.8202 C.ar    1  UNL1        0.0020
     20 C         139.4943  143.7766  165.5684 C.ar    1  UNL1        0.0147
     21 C         140.4147  142.5933  165.5184 C.ar    1  UNL1        0.0504
     22 C         140.0353  141.3812  164.7202 C.ar    1  UNL1        0.0249
     23 N         137.9767  138.9288  162.3755 N.1     1  UNL1       -0.1908
     24 C         138.3561  140.1407  163.1737 C.1     1  UNL1        0.1005
@<TRIPOS>BOND
     1    23    24    3
     2    24    17    1
     3    17    18   ar
     4    18    19   ar
     5    19    20   ar
     6    20    21   ar
     7    21    15    1
     8    15     1    1
     9     1     2    2
    10     1     3    1
    11     3     4   ar
    12     4     5   ar
    13     5     6   ar
    14     6     7   ar
    15     7     8   ar
    16     1     9    1
    17     9    10   ar
    18    10    11   ar
    19    11    12   ar
    20    12    13   ar
    21    13    14   ar
    22    21    22   ar
    23    22    17   ar
    24     8     3   ar
    25    14     9   ar
    26    15    16    1
@<TRIPOS>MOLECULE
*****
 24 26 0 0 0
SMALL
GASTEIGER

@<TRIPOS>ATOM
      1 P         141.1048  140.4102  167.0651 P.3     1  UNL1        0.2234
      2 O         139.9180  140.0154  167.8933 O.2     1  UNL1       -0.2905
      3 C         140.6879  139.4363  166.0032 C.ar    1  UNL1        0.0496
      4 C         141.7000  138.5115  165.3944 C.ar    1  UNL1        0.0046
      5 C         141.2830  137.5377  164.3326 C.ar    1  UNL1        0.0002
      6 C         139.8539  137.4885  163.8794 C.ar    1  UNL1        0.0000
      7 C         138.8418  138.4132  164.4881 C.ar    1  UNL1        0.0002
      8 C         139.2588  139.3871  165.5501 C.ar    1  UNL1        0.0046
      9 C         141.5218  141.3840  168.1270 C.ar    1  UNL1        0.0496
     10 C         142.8996  141.3078  168.7153 C.ar    1  UNL1        0.0046
     11 C         143.3166  142.2817  169.7772 C.ar    1  UNL1        0.0002
     12 C         142.3559  143.3318  170.2508 C.ar    1  UNL1        0.0000
     13 C         140.9782  143.4081  169.6626 C.ar    1  UNL1        0.0002
     14 C         140.5611  142.4342  168.6006 C.ar    1  UNL1        0.0046
     15 N         142.2916  140.8049  166.2370 N.pl3   1  UNL1       -0.2869
     16 H         143.0837  140.2214  166.2024 H       1  UNL1        0.1540
     17 C         140.9819  143.8356  164.0348 C.ar    1  UNL1        0.0697
     18 C         142.2312  144.6567  163.9110 C.ar    1  UNL1        0.0104
     19 C         143.5005  144.1938  164.5625 C.ar    1  UNL1        0.0020
     20 C         143.5206  142.9099  165.3379 C.ar    1  UNL1        0.0147
     21 C         142.2715  142.0888  165.4617 C.ar    1  UNL1        0.0504
     22 C         141.0020  142.5517  164.8101 C.ar    1  UNL1        0.0249
     23 N         138.4433  144.7613  162.7317 N.1     1  UNL1       -0.1908
     24 C         139.7126  144.2985  163.3832 C.1     1  UNL1        0.1005
@<TRIPOS>BOND
     1    23    24    3
     2    24    17    1
     3    17    18   ar
     4    18    19   ar
     5    19    20   ar
     6    20    21   ar
     7    21    15    1
     8    15     1    1
     9     1     2    2
    10     1     3    1
    11     3     4   ar
    12     4     5   ar
    13     5     6   ar
    14     6     7   ar
    15     7     8   ar
    16     1     9    1
    17     9    10   ar
    18    10    11   ar
    19    11    12   ar
    20    12    13   ar
    21    13    14   ar
    22    21    22   ar
    23    22    17   ar
    24     8     3   ar
    25    14     9   ar
    26    15    16    1
@<TRIPOS>MOLECULE
*****
 24 26 0 0 0
SMALL
GASTEIGER

@<TRIPOS>ATOM
      1 P         141.1693  140.4060  167.0972 P.3     1  UNL1        0.2234
      2 O         139.9147  140.1054  167.8626 O.2     1  UNL1       -0.2905
      3 C         141.6008  141.3539  168.1767 C.ar    1  UNL1        0.0496
      4 C         140.6780  142.4469  168.6281 C.ar    1  UNL1        0.0046
      5 C         141.1095  143.3947  169.7075 C.ar    1  UNL1        0.0002
      6 C         142.4639  143.2496  170.3357 C.ar    1  UNL1        0.0000
      7 C         143.3867  142.1566  169.8844 C.ar    1  UNL1        0.0002
      8 C         142.9552  141.2087  168.8049 C.ar    1  UNL1        0.0046
      9 C         140.7378  139.4582  166.0177 C.ar    1  UNL1        0.0496
     10 C         141.7181  138.4786  165.4437 C.ar    1  UNL1        0.0046
     11 C         141.2866  137.5308  164.3642 C.ar    1  UNL1        0.0002
     12 C         139.8747  137.5625  163.8587 C.ar    1  UNL1        0.0000
     13 C         138.8944  138.5419  164.4326 C.ar    1  UNL1        0.0002
     14 C         139.3259  139.4899  165.5122 C.ar    1  UNL1        0.0046
     15 N         142.4238  140.7066  166.3318 N.pl3   1  UNL1       -0.2869
     16 H         143.1639  140.0574  166.3252 H       1  UNL1        0.1540
     17 C         141.4720  143.8940  164.1673 C.ar    1  UNL1        0.0697
     18 C         142.8044  144.5756  164.0655 C.ar    1  UNL1        0.0104
     19 C         144.0098  143.9675  164.7190 C.ar    1  UNL1        0.0020
     20 C         143.8829  142.6778  165.4745 C.ar    1  UNL1        0.0147
     21 C         142.5507  141.9962  165.5764 C.ar    1  UNL1        0.0504
     22 C         141.3452  142.6043  164.9228 C.ar    1  UNL1        0.0249
     23 N         139.0612  145.1101  162.8602 N.1     1  UNL1       -0.1908
     24 C         140.2666  144.5021  163.5138 C.1     1  UNL1        0.1005
@<TRIPOS>BOND
     1    23    24    3
     2    24    17    1
     3    17    18   ar
     4    18    19   ar
     5    19    20   ar
     6    20    21   ar
     7    21    15    1
     8    15     1    1
     9     1     2    2
    10     1     3    1
    11     3     4   ar
    12     4     5   ar
    13     5     6   ar
    14     6     7   ar
    15     7     8   ar
    16     1     9    1
    17     9    10   ar
    18    10    11   ar
    19    11    12   ar
    20    12    13   ar
    21    13    14   ar
    22    21    22   ar
    23    22    17   ar
    24     8     3   ar
    25    14     9   ar
    26    15    16    1
@<TRIPOS>MOLECULE
*****
 24 26 0 0 0
SMALL
GASTEIGER

@<TRIPOS>ATOM
      1 P         141.7620  140.2750  165.4460 P.3     1  UNL1        0.2234
      2 O         142.4492  139.9276  166.7333 O.2     1  UNL1       -0.2905
      3 C         140.4792  139.7080  165.9777 C.ar    1  UNL1        0.0496
      4 C         139.7139  138.7000  165.1725 C.ar    1  UNL1        0.0046
      5 C         138.4311  138.1330  165.7042 C.ar    1  UNL1        0.0002
      6 C         137.9134  138.5740  167.0412 C.ar    1  UNL1        0.0000
      7 C         138.6785  139.5820  167.8464 C.ar    1  UNL1        0.0002
      8 C         139.9615  140.1490  167.3147 C.ar    1  UNL1        0.0046
      9 C         143.0448  140.8420  164.9142 C.ar    1  UNL1        0.0496
     10 C         143.5435  142.1658  165.4132 C.ar    1  UNL1        0.0046
     11 C         144.8264  142.7328  164.8815 C.ar    1  UNL1        0.0002
     12 C         145.6106  141.9760  163.8508 C.ar    1  UNL1        0.0000
     13 C         145.1120  140.6522  163.3518 C.ar    1  UNL1        0.0002
     14 C         143.8291  140.0852  163.8836 C.ar    1  UNL1        0.0046
     15 N         141.0749  140.6224  164.1587 N.pl3   1  UNL1       -0.2869
     16 H         140.8776  139.9176  163.5002 H       1  UNL1        0.1540
     17 C         139.4713  144.2282  164.5794 C.ar    1  UNL1        0.0697
     18 C         139.9153  144.8861  163.3066 C.ar    1  UNL1        0.0104
     19 C         140.7458  144.1228  162.3178 C.ar    1  UNL1        0.0020
     20 C         141.1323  142.7016  162.6019 C.ar    1  UNL1        0.0147
     21 C         140.6883  142.0436  163.8747 C.ar    1  UNL1        0.0504
     22 C         139.8578  142.8069  164.8635 C.ar    1  UNL1        0.0249
     23 N         137.8103  145.7548  166.5569 N.1     1  UNL1       -0.1908
     24 C         138.6408  144.9915  165.5681 C.1     1  UNL1        0.1005
@<TRIPOS>BOND
     1    23    24    3
     2    24    17    1
     3    17    18   ar
     4    18    19   ar
     5    19    20   ar
     6    20    21   ar
     7    21    15    1
     8    15     1    1
     9     1     2    2
    10     1     3    1
    11     3     4   ar
    12     4     5   ar
    13     5     6   ar
    14     6     7   ar
    15     7     8   ar
    16     1     9    1
    17     9    10   ar
    18    10    11   ar
    19    11    12   ar
    20    12    13   ar
    21    13    14   ar
    22    21    22   ar
    23    22    17   ar
    24     8     3   ar
    25    14     9   ar
    26    15    16    1
@<TRIPOS>MOLECULE
*****
 24 26 0 0 0
SMALL
GASTEIGER

@<TRIPOS>ATOM
      1 P         141.4415  142.0737  164.4800 P.3     1  UNL1        0.2234
      2 O         141.9912  143.2638  163.7509 O.2     1  UNL1       -0.2905
      3 C         142.7753  141.3951  164.3782 C.ar    1  UNL1        0.0496
      4 C         144.0296  142.2142  164.3006 C.ar    1  UNL1        0.0046
      5 C         145.3634  141.5357  164.1988 C.ar    1  UNL1        0.0002
      6 C         145.4431  140.0380  164.1744 C.ar    1  UNL1        0.0000
      7 C         144.1889  139.2189  164.2520 C.ar    1  UNL1        0.0002
      8 C         142.8550  139.8974  164.3538 C.ar    1  UNL1        0.0046
      9 C         140.1077  142.7522  164.5819 C.ar    1  UNL1        0.0496
     10 C         138.8743  142.0610  164.0806 C.ar    1  UNL1        0.0046
     11 C         137.5405  142.7396  164.1825 C.ar    1  UNL1        0.0002
     12 C         137.4399  144.1093  164.7856 C.ar    1  UNL1        0.0000
     13 C         138.6732  144.8005  165.2868 C.ar    1  UNL1        0.0002
     14 C         140.0071  144.1219  165.1850 C.ar    1  UNL1        0.0046
     15 N         140.8918  140.8836  165.2091 N.pl3   1  UNL1       -0.2869
     16 H         140.6823  140.0578  164.7159 H       1  UNL1        0.1540
     17 C         141.3028  141.8905  169.0258 C.ar    1  UNL1        0.0697
     18 C         140.2000  141.0885  169.6509 C.ar    1  UNL1        0.0104
     19 C         139.3278  140.2183  168.7954 C.ar    1  UNL1        0.0020
     20 C         139.5584  140.1500  167.3148 C.ar    1  UNL1        0.0147
     21 C         140.6612  140.9519  166.6897 C.ar    1  UNL1        0.0504
     22 C         141.5334  141.8222  167.5452 C.ar    1  UNL1        0.0249
     23 N         143.0472  143.6310  170.7369 N.1     1  UNL1       -0.1908
     24 C         142.1750  142.7608  169.8814 C.1     1  UNL1        0.1005
@<TRIPOS>BOND
     1    23    24    3
     2    24    17    1
     3    17    18   ar
     4    18    19   ar
     5    19    20   ar
     6    20    21   ar
     7    21    15    1
     8    15     1    1
     9     1     2    2
    10     1     3    1
    11     3     4   ar
    12     4     5   ar
    13     5     6   ar
    14     6     7   ar
    15     7     8   ar
    16     1     9    1
    17     9    10   ar
    18    10    11   ar
    19    11    12   ar
    20    12    13   ar
    21    13    14   ar
    22    21    22   ar
    23    22    17   ar
    24     8     3   ar
    25    14     9   ar
    26    15    16    1
