@<TRIPOS>MOLECULE
*****
 35 38 0 0 0
SMALL
GASTEIGER

@<TRIPOS>ATOM
      1 C         142.5179  141.4023  167.4561 C.ar    1  UNL1        0.1060
      2 C         142.1347  139.9522  167.4762 C.ar    1  UNL1        0.0215
      3 C         142.4914  139.0661  166.3196 C.ar    1  UNL1        0.0384
      4 C         143.2314  139.6302  165.1430 C.ar    1  UNL1        0.1432
      5 C         143.6146  141.0803  165.1230 C.ar    1  UNL1        0.0888
      6 C         143.2578  141.9664  166.2796 C.ar    1  UNL1        0.0259
      7 C         144.3545  141.6443  163.9464 C.2     1  UNL1        0.2525
      8 O         145.8544  141.6426  163.9327 O.2     1  UNL1       -0.2698
      9 N         143.5945  142.2099  162.7834 N.am    1  UNL1       -0.2660
     10 C         142.1016  142.2797  162.6558 C.3     1  UNL1        0.1236
     11 C         141.7784  142.9180  161.3374 C.ar    1  UNL1        0.0338
     12 C         140.6560  143.3556  160.4437 C.ar    1  UNL1        0.0991
     13 N         141.2555  143.9508  159.2041 N.ar    1  UNL1       -0.2265
     14 N         142.7485  143.8810  159.3318 N.ar    1  UNL1       -0.1679
     15 C         143.0716  143.2427  160.6502 C.ar    1  UNL1        0.0981
     16 C         144.1940  142.8050  161.5439 C.3     1  UNL1        0.1414
     17 C         140.4956  144.5164  158.0413 C.ar    1  UNL1        0.1102
     18 C         140.6066  145.9753  157.7109 C.ar    1  UNL1        0.0214
     19 C         139.8467  146.5410  156.5479 C.ar    1  UNL1        0.0017
     20 C         138.9756  145.6477  155.7153 C.ar    1  UNL1        0.0024
     21 C         138.8645  144.1887  156.0457 C.ar    1  UNL1        0.0312
     22 C         139.6244  143.6231  157.2086 C.ar    1  UNL1        0.1577
     23 F         139.5134  142.1642  157.5390 F       1  UNL1       -0.2026
     24 S         142.1612  142.2884  168.6127 S.O2    1  UNL1        0.0087
     25 O         143.6104  142.6268  168.8004 O.2     1  UNL1       -0.1686
     26 O         140.7119  141.9500  168.4250 O.2     1  UNL1       -0.1686
     27 C         140.4394  143.7911  169.8485 C.3     1  UNL1        0.0276
     28 C         141.8045  143.1745  169.7692 C.3     1  UNL1        0.1560
     29 O         143.5881  138.7441  163.9865 O.3     1  UNL1       -0.4702
     30 C         142.6257  138.5719  162.8489 C.3     1  UNL1        0.2599
     31 C         143.0731  138.8355  161.4416 C.3     1  UNL1        0.0566
     32 C         141.2160  138.1361  163.1184 C.3     1  UNL1        0.4340
     33 F         139.8061  137.7004  163.3880 F       1  UNL1       -0.1664
     34 F         141.7282  136.9210  163.8334 F       1  UNL1       -0.1664
     35 F         140.7037  139.3512  162.4035 F       1  UNL1       -0.1664
@<TRIPOS>BOND
     1    27    28    1
     2    28    24    1
     3    24    25    2
     4    24    26    2
     5    24     1    1
     6     1     2   ar
     7     2     3   ar
     8     3     4   ar
     9     4    29    1
    10    29    30    1
    11    30    31    1
    12    30    32    1
    13    32    33    1
    14    32    34    1
    15    32    35    1
    16     4     5   ar
    17     5     7    1
    18     7     8    2
    19     7     9   am
    20     9    10    1
    21    10    11    1
    22    11    12   ar
    23    12    13   ar
    24    13    17    1
    25    17    18   ar
    26    18    19   ar
    27    19    20   ar
    28    20    21   ar
    29    21    22   ar
    30    22    23    1
    31    13    14   ar
    32    14    15   ar
    33    15    16    1
    34     5     6   ar
    35     6     1   ar
    36    16     9    1
    37    15    11   ar
    38    22    17   ar
@<TRIPOS>MOLECULE
*****
 35 38 0 0 0
SMALL
GASTEIGER

@<TRIPOS>ATOM
      1 C         140.6972  141.6785  167.8497 C.ar    1  UNL1        0.1060
      2 C         140.0891  140.3346  168.1221 C.ar    1  UNL1        0.0215
      3 C         139.2105  139.6865  167.0934 C.ar    1  UNL1        0.0384
      4 C         138.9401  140.3824  165.7923 C.ar    1  UNL1        0.1432
      5 C         139.5483  141.7263  165.5199 C.ar    1  UNL1        0.0888
      6 C         140.4268  142.3743  166.5487 C.ar    1  UNL1        0.0259
      7 C         139.2778  142.4221  164.2189 C.2     1  UNL1        0.2525
      8 O         138.0649  143.2922  164.0717 O.2     1  UNL1       -0.2698
      9 N         140.2203  142.2477  163.0650 N.am    1  UNL1       -0.2660
     10 C         141.4671  141.4137  163.0633 C.3     1  UNL1        0.1236
     11 C         142.0987  141.5273  161.7075 C.ar    1  UNL1        0.0338
     12 C         143.2596  141.0821  160.8685 C.ar    1  UNL1        0.0991
     13 N         143.1208  141.7110  159.5137 N.ar    1  UNL1       -0.2265
     14 N         141.8739  142.5450  159.5156 N.ar    1  UNL1       -0.1679
     15 C         141.2423  142.4314  160.8713 C.ar    1  UNL1        0.0981
     16 C         140.0813  142.8766  161.7104 C.3     1  UNL1        0.1414
     17 C         144.0631  141.5366  158.3599 C.ar    1  UNL1        0.1102
     18 C         145.1902  142.5059  158.1590 C.ar    1  UNL1        0.0214
     19 C         146.1327  142.3315  157.0051 C.ar    1  UNL1        0.0017
     20 C         145.9480  141.1879  156.0522 C.ar    1  UNL1        0.0024
     21 C         144.8209  140.2187  156.2531 C.ar    1  UNL1        0.0312
     22 C         143.8786  140.3930  157.4069 C.ar    1  UNL1        0.1577
     23 F         142.7515  139.4238  157.6079 F       1  UNL1       -0.2026
     24 S         141.5758  142.3266  168.8783 S.O2    1  UNL1        0.0087
     25 O         142.7882  141.7647  168.1968 O.2     1  UNL1       -0.1686
     26 O         140.3634  142.8884  169.5598 O.2     1  UNL1       -0.1686
     27 C         143.9063  142.6079  169.9916 C.3     1  UNL1        0.0276
     28 C         142.4543  142.9747  169.9070 C.3     1  UNL1        0.1560
     29 O         138.0616  139.7343  164.7637 O.3     1  UNL1       -0.4702
     30 C         138.6412  138.7409  163.8008 C.3     1  UNL1        0.2599
     31 C         138.2218  138.7595  162.3607 C.3     1  UNL1        0.0566
     32 C         139.6403  137.7289  164.2778 C.3     1  UNL1        0.4340
     33 F         140.6394  136.7168  164.7550 F       1  UNL1       -0.1664
     34 F         140.6883  138.3514  163.4037 F       1  UNL1       -0.1664
     35 F         138.5923  137.1065  165.1520 F       1  UNL1       -0.1664
@<TRIPOS>BOND
     1    27    28    1
     2    28    24    1
     3    24    25    2
     4    24    26    2
     5    24     1    1
     6     1     2   ar
     7     2     3   ar
     8     3     4   ar
     9     4    29    1
    10    29    30    1
    11    30    31    1
    12    30    32    1
    13    32    33    1
    14    32    34    1
    15    32    35    1
    16     4     5   ar
    17     5     7    1
    18     7     8    2
    19     7     9   am
    20     9    10    1
    21    10    11    1
    22    11    12   ar
    23    12    13   ar
    24    13    17    1
    25    17    18   ar
    26    18    19   ar
    27    19    20   ar
    28    20    21   ar
    29    21    22   ar
    30    22    23    1
    31    13    14   ar
    32    14    15   ar
    33    15    16    1
    34     5     6   ar
    35     6     1   ar
    36    16     9    1
    37    15    11   ar
    38    22    17   ar
@<TRIPOS>MOLECULE
*****
 35 38 0 0 0
SMALL
GASTEIGER

@<TRIPOS>ATOM
      1 C         142.4043  140.3394  167.2682 C.ar    1  UNL1        0.1060
      2 C         143.1355  139.0717  166.9392 C.ar    1  UNL1        0.0215
      3 C         142.6074  138.1558  165.8751 C.ar    1  UNL1        0.0384
      4 C         141.3480  138.5078  165.1400 C.ar    1  UNL1        0.1432
      5 C         140.6169  139.7755  165.4690 C.ar    1  UNL1        0.0888
      6 C         141.1450  140.6914  166.5331 C.ar    1  UNL1        0.0259
      7 C         139.3576  140.1273  164.7339 C.2     1  UNL1        0.2525
      8 O         138.0266  139.7034  165.2806 O.2     1  UNL1       -0.2698
      9 N         139.4292  140.9031  163.4521 N.am    1  UNL1       -0.2660
     10 C         140.6812  141.3927  162.7866 C.3     1  UNL1        0.1236
     11 C         140.2871  142.1176  161.5340 C.ar    1  UNL1        0.0338
     12 C         140.8173  142.8683  160.3485 C.ar    1  UNL1        0.0991
     13 N         139.6496  143.2906  159.5070 N.ar    1  UNL1       -0.2265
     14 N         138.3976  142.8009  160.1725 N.ar    1  UNL1       -0.1679
     15 C         138.7916  142.0760  161.4252 C.ar    1  UNL1        0.0981
     16 C         138.2614  141.3254  162.6107 C.3     1  UNL1        0.1414
     17 C         139.7212  144.0663  158.2253 C.ar    1  UNL1        0.1102
     18 C         139.0180  143.5591  157.0013 C.ar    1  UNL1        0.0214
     19 C         139.0895  144.3348  155.7194 C.ar    1  UNL1        0.0017
     20 C         139.8644  145.6178  155.6616 C.ar    1  UNL1        0.0024
     21 C         140.5677  146.1252  156.8856 C.ar    1  UNL1        0.0312
     22 C         140.4961  145.3495  158.1673 C.ar    1  UNL1        0.1577
     23 F         141.1993  145.8567  159.3913 F       1  UNL1       -0.2026
     24 S         142.9324  141.2553  168.3323 S.O2    1  UNL1        0.0087
     25 O         142.8252  142.4152  167.3871 O.2     1  UNL1       -0.1686
     26 O         143.0396  140.0955  169.2774 O.2     1  UNL1       -0.1686
     27 C         142.5087  142.9302  170.2727 C.3     1  UNL1        0.0276
     28 C         143.4605  142.1712  169.3963 C.3     1  UNL1        0.1560
     29 O         140.8199  137.5919  164.0760 O.3     1  UNL1       -0.4702
     30 C         141.1441  137.8512  162.6346 C.3     1  UNL1        0.2599
     31 C         142.5702  138.0372  162.2082 C.3     1  UNL1        0.0566
     32 C         140.0423  137.9247  161.6195 C.3     1  UNL1        0.4340
     33 F         138.9403  137.9981  160.6043 F       1  UNL1       -0.1664
     34 F         141.0282  138.3725  160.5815 F       1  UNL1       -0.1664
     35 F         139.0562  137.4769  162.6573 F       1  UNL1       -0.1664
@<TRIPOS>BOND
     1    27    28    1
     2    28    24    1
     3    24    25    2
     4    24    26    2
     5    24     1    1
     6     1     2   ar
     7     2     3   ar
     8     3     4   ar
     9     4    29    1
    10    29    30    1
    11    30    31    1
    12    30    32    1
    13    32    33    1
    14    32    34    1
    15    32    35    1
    16     4     5   ar
    17     5     7    1
    18     7     8    2
    19     7     9   am
    20     9    10    1
    21    10    11    1
    22    11    12   ar
    23    12    13   ar
    24    13    17    1
    25    17    18   ar
    26    18    19   ar
    27    19    20   ar
    28    20    21   ar
    29    21    22   ar
    30    22    23    1
    31    13    14   ar
    32    14    15   ar
    33    15    16    1
    34     5     6   ar
    35     6     1   ar
    36    16     9    1
    37    15    11   ar
    38    22    17   ar
@<TRIPOS>MOLECULE
*****
 35 38 0 0 0
SMALL
GASTEIGER

@<TRIPOS>ATOM
      1 C         141.7118  140.8586  166.0659 C.ar    1  UNL1        0.1060
      2 C         142.2555  142.2440  165.8788 C.ar    1  UNL1        0.0215
      3 C         141.7736  143.0912  164.7386 C.ar    1  UNL1        0.0384
      4 C         140.7480  142.5528  163.7855 C.ar    1  UNL1        0.1432
      5 C         140.2043  141.1674  163.9726 C.ar    1  UNL1        0.0888
      6 C         140.6862  140.3203  165.1129 C.ar    1  UNL1        0.0259
      7 C         139.1787  140.6292  163.0195 C.2     1  UNL1        0.2525
      8 O         137.7182  140.7725  163.3299 O.2     1  UNL1       -0.2698
      9 N         139.6136  139.9477  161.7560 N.am    1  UNL1       -0.2660
     10 C         141.0305  139.7316  161.3136 C.3     1  UNL1        0.1236
     11 C         141.0006  139.0129  159.9973 C.ar    1  UNL1        0.0338
     12 C         141.8577  138.4352  158.9103 C.ar    1  UNL1        0.0991
     13 N         140.9521  137.8501  157.8674 N.ar    1  UNL1       -0.2265
     14 N         139.5352  138.0663  158.3099 N.ar    1  UNL1       -0.1679
     15 C         139.5652  138.7849  159.6262 C.ar    1  UNL1        0.0981
     16 C         138.7080  139.3626  160.7132 C.3     1  UNL1        0.1414
     17 C         141.3870  137.1687  156.6040 C.ar    1  UNL1        0.1102
     18 C         142.8473  136.9761  156.3201 C.ar    1  UNL1        0.0214
     19 C         143.2822  136.2945  155.0566 C.ar    1  UNL1        0.0017
     20 C         142.2569  135.8056  154.0770 C.ar    1  UNL1        0.0024
     21 C         140.7966  135.9982  154.3609 C.ar    1  UNL1        0.0312
     22 C         140.3617  136.6797  155.6243 C.ar    1  UNL1        0.1577
     23 F         138.9015  136.8722  155.9083 F       1  UNL1       -0.2026
     24 S         142.1937  140.0114  167.2062 S.O2    1  UNL1        0.0087
     25 O         142.8610  139.0836  166.2347 O.2     1  UNL1       -0.1686
     26 O         141.5264  140.9393  168.1776 O.2     1  UNL1       -0.1686
     27 C         142.2556  139.4863  169.7499 C.3     1  UNL1        0.0276
     28 C         142.6756  139.1643  168.3464 C.3     1  UNL1        0.1560
     29 O         140.2661  143.4000  162.6453 O.3     1  UNL1       -0.4702
     30 C         139.3926  144.5900  162.9119 C.3     1  UNL1        0.2599
     31 C         139.5719  145.8462  162.1121 C.3     1  UNL1        0.0566
     32 C         138.3398  144.5237  163.9783 C.3     1  UNL1        0.4340
     33 F         137.2869  144.4575  165.0447 F       1  UNL1       -0.1664
     34 F         139.2606  145.2269  164.9311 F       1  UNL1       -0.1664
     35 F         137.4190  143.8206  163.0256 F       1  UNL1       -0.1664
@<TRIPOS>BOND
     1    27    28    1
     2    28    24    1
     3    24    25    2
     4    24    26    2
     5    24     1    1
     6     1     2   ar
     7     2     3   ar
     8     3     4   ar
     9     4    29    1
    10    29    30    1
    11    30    31    1
    12    30    32    1
    13    32    33    1
    14    32    34    1
    15    32    35    1
    16     4     5   ar
    17     5     7    1
    18     7     8    2
    19     7     9   am
    20     9    10    1
    21    10    11    1
    22    11    12   ar
    23    12    13   ar
    24    13    17    1
    25    17    18   ar
    26    18    19   ar
    27    19    20   ar
    28    20    21   ar
    29    21    22   ar
    30    22    23    1
    31    13    14   ar
    32    14    15   ar
    33    15    16    1
    34     5     6   ar
    35     6     1   ar
    36    16     9    1
    37    15    11   ar
    38    22    17   ar
@<TRIPOS>MOLECULE
*****
 35 38 0 0 0
SMALL
GASTEIGER

@<TRIPOS>ATOM
      1 C         139.7813  139.9898  166.0265 C.ar    1  UNL1        0.1060
      2 C         141.2114  139.7495  166.4101 C.ar    1  UNL1        0.0215
      3 C         142.2361  140.8239  166.1960 C.ar    1  UNL1        0.0384
      4 C         141.8305  142.1386  165.5982 C.ar    1  UNL1        0.1432
      5 C         140.4005  142.3788  165.2146 C.ar    1  UNL1        0.0888
      6 C         139.3759  141.3044  165.4288 C.ar    1  UNL1        0.0259
      7 C         139.9951  143.6935  164.6169 C.2     1  UNL1        0.2525
      8 O         139.5112  144.8029  165.5029 O.2     1  UNL1       -0.2698
      9 N         140.0735  143.8987  163.1330 N.am    1  UNL1       -0.2660
     10 C         140.5349  142.8871  162.1262 C.3     1  UNL1        0.1236
     11 C         140.4508  143.5149  160.7665 C.ar    1  UNL1        0.0338
     12 C         140.6840  143.2776  159.3038 C.ar    1  UNL1        0.0991
     13 N         140.3148  144.5305  158.5663 N.ar    1  UNL1       -0.2265
     14 N         139.8533  145.5422  159.5732 N.ar    1  UNL1       -0.1679
     15 C         139.9374  144.9144  160.9329 C.ar    1  UNL1        0.0981
     16 C         139.7042  145.1517  162.3956 C.3     1  UNL1        0.1414
     17 C         140.3932  144.7358  157.0826 C.ar    1  UNL1        0.1102
     18 C         139.3528  144.1328  156.1860 C.ar    1  UNL1        0.0214
     19 C         139.4311  144.3381  154.7021 C.ar    1  UNL1        0.0017
     20 C         140.5500  145.1464  154.1149 C.ar    1  UNL1        0.0024
     21 C         141.5905  145.7494  155.0115 C.ar    1  UNL1        0.0312
     22 C         141.5121  145.5441  156.4953 C.ar    1  UNL1        0.1577
     23 F         142.5525  146.1471  157.3919 F       1  UNL1       -0.2026
     24 S         138.7567  138.9154  166.2407 S.O2    1  UNL1        0.0087
     25 O         138.7178  138.6581  164.7634 O.2     1  UNL1       -0.1686
     26 O         138.7956  139.1728  167.7179 O.2     1  UNL1       -0.1686
     27 C         136.9616  137.7850  167.7406 C.3     1  UNL1        0.0276
     28 C         137.7320  137.8411  166.4548 C.3     1  UNL1        0.1560
     29 O         142.8552  143.2129  165.3841 O.3     1  UNL1       -0.4702
     30 C         143.6793  143.2243  164.1308 C.3     1  UNL1        0.2599
     31 C         143.6748  144.4320  163.2412 C.3     1  UNL1        0.0566
     32 C         144.5078  142.0280  163.7670 C.3     1  UNL1        0.4340
     33 F         145.3364  140.8316  163.4032 F       1  UNL1       -0.1664
     34 F         145.5990  142.5066  164.6782 F       1  UNL1       -0.1664
     35 F         143.4167  141.5494  162.8558 F       1  UNL1       -0.1664
@<TRIPOS>BOND
     1    27    28    1
     2    28    24    1
     3    24    25    2
     4    24    26    2
     5    24     1    1
     6     1     2   ar
     7     2     3   ar
     8     3     4   ar
     9     4    29    1
    10    29    30    1
    11    30    31    1
    12    30    32    1
    13    32    33    1
    14    32    34    1
    15    32    35    1
    16     4     5   ar
    17     5     7    1
    18     7     8    2
    19     7     9   am
    20     9    10    1
    21    10    11    1
    22    11    12   ar
    23    12    13   ar
    24    13    17    1
    25    17    18   ar
    26    18    19   ar
    27    19    20   ar
    28    20    21   ar
    29    21    22   ar
    30    22    23    1
    31    13    14   ar
    32    14    15   ar
    33    15    16    1
    34     5     6   ar
    35     6     1   ar
    36    16     9    1
    37    15    11   ar
    38    22    17   ar
@<TRIPOS>MOLECULE
*****
 35 38 0 0 0
SMALL
GASTEIGER

@<TRIPOS>ATOM
      1 C         140.1706  140.2276  166.1698 C.ar    1  UNL1        0.1060
      2 C         140.3756  141.6300  166.6609 C.ar    1  UNL1        0.0215
      3 C         141.5875  142.4044  166.2345 C.ar    1  UNL1        0.0384
      4 C         142.5943  141.7762  165.3169 C.ar    1  UNL1        0.1432
      5 C         142.3892  140.3738  164.8258 C.ar    1  UNL1        0.0888
      6 C         141.1773  139.5995  165.2523 C.ar    1  UNL1        0.0259
      7 C         143.3961  139.7458  163.9083 C.2     1  UNL1        0.2525
      8 O         144.8063  139.5350  164.3740 O.2     1  UNL1       -0.2698
      9 N         142.9927  139.3286  162.5251 N.am    1  UNL1       -0.2660
     10 C         141.6266  139.4751  161.9231 C.3     1  UNL1        0.1236
     11 C         141.6743  138.9287  160.5271 C.ar    1  UNL1        0.0338
     12 C         140.8594  138.6815  159.2922 C.ar    1  UNL1        0.0991
     13 N         141.7513  138.0444  158.2681 N.ar    1  UNL1       -0.2265
     14 N         143.1174  137.8979  158.8701 N.ar    1  UNL1       -0.1679
     15 C         143.0698  138.4443  160.2662 C.ar    1  UNL1        0.0981
     16 C         143.8846  138.6915  161.5011 C.3     1  UNL1        0.1414
     17 C         141.3480  137.6272  156.8849 C.ar    1  UNL1        0.1102
     18 C         140.5272  138.5492  156.0328 C.ar    1  UNL1        0.0214
     19 C         140.1238  138.1320  154.6496 C.ar    1  UNL1        0.0017
     20 C         140.5412  136.7927  154.1185 C.ar    1  UNL1        0.0024
     21 C         141.3620  135.8706  154.9707 C.ar    1  UNL1        0.0312
     22 C         141.7654  136.2878  156.3538 C.ar    1  UNL1        0.1577
     23 F         142.5861  135.3658  157.2060 F       1  UNL1       -0.2026
     24 S         138.9587  139.4533  166.5962 S.O2    1  UNL1        0.0087
     25 O         138.6817  139.0988  165.1652 O.2     1  UNL1       -0.1686
     26 O         139.2358  139.8077  168.0271 O.2     1  UNL1       -0.1686
     27 C         137.6370  137.2188  166.6969 C.3     1  UNL1        0.0276
     28 C         137.7469  138.6789  167.0225 C.3     1  UNL1        0.1560
     29 O         143.8061  142.5506  164.8905 O.3     1  UNL1       -0.4702
     30 C         143.7361  143.4552  163.6961 C.3     1  UNL1        0.2599
     31 C         144.5217  143.1284  162.4607 C.3     1  UNL1        0.0566
     32 C         142.8807  144.6866  163.7369 C.3     1  UNL1        0.4340
     33 F         142.0252  145.9182  163.7777 F       1  UNL1       -0.1664
     34 F         141.8149  143.9721  162.9600 F       1  UNL1       -0.1664
     35 F         143.9464  145.4012  164.5138 F       1  UNL1       -0.1664
@<TRIPOS>BOND
     1    27    28    1
     2    28    24    1
     3    24    25    2
     4    24    26    2
     5    24     1    1
     6     1     2   ar
     7     2     3   ar
     8     3     4   ar
     9     4    29    1
    10    29    30    1
    11    30    31    1
    12    30    32    1
    13    32    33    1
    14    32    34    1
    15    32    35    1
    16     4     5   ar
    17     5     7    1
    18     7     8    2
    19     7     9   am
    20     9    10    1
    21    10    11    1
    22    11    12   ar
    23    12    13   ar
    24    13    17    1
    25    17    18   ar
    26    18    19   ar
    27    19    20   ar
    28    20    21   ar
    29    21    22   ar
    30    22    23    1
    31    13    14   ar
    32    14    15   ar
    33    15    16    1
    34     5     6   ar
    35     6     1   ar
    36    16     9    1
    37    15    11   ar
    38    22    17   ar
@<TRIPOS>MOLECULE
*****
 35 38 0 0 0
SMALL
GASTEIGER

@<TRIPOS>ATOM
      1 C         141.2886  141.0732  167.1126 C.ar    1  UNL1        0.1060
      2 C         140.0934  141.9315  166.8216 C.ar    1  UNL1        0.0215
      3 C         139.9829  142.6419  165.5051 C.ar    1  UNL1        0.0384
      4 C         141.0677  142.4939  164.4797 C.ar    1  UNL1        0.1432
      5 C         142.2629  141.6355  164.7707 C.ar    1  UNL1        0.0888
      6 C         142.3733  140.9251  166.0872 C.ar    1  UNL1        0.0259
      7 C         143.3476  141.4875  163.7453 C.2     1  UNL1        0.2525
      8 O         144.6769  142.1488  163.9589 O.2     1  UNL1       -0.2698
      9 N         143.1030  140.6783  162.5062 N.am    1  UNL1       -0.2660
     10 C         141.8316  139.9628  162.1571 C.3     1  UNL1        0.1236
     11 C         142.0298  139.2848  160.8339 C.ar    1  UNL1        0.0338
     12 C         141.3665  138.4235  159.8003 C.ar    1  UNL1        0.0991
     13 N         142.3502  138.1876  158.6927 N.ar    1  UNL1       -0.2265
     14 N         143.6216  138.9031  159.0419 N.ar    1  UNL1       -0.1679
     15 C         143.4235  139.5812  160.3651 C.ar    1  UNL1        0.0981
     16 C         144.0868  140.4424  161.3987 C.3     1  UNL1        0.1414
     17 C         142.1057  137.3784  157.4537 C.ar    1  UNL1        0.1102
     18 C         142.9510  136.1731  157.1661 C.ar    1  UNL1        0.0214
     19 C         142.7065  135.3638  155.9270 C.ar    1  UNL1        0.0017
     20 C         141.6165  135.7598  154.9756 C.ar    1  UNL1        0.0024
     21 C         140.7711  136.9652  155.2632 C.ar    1  UNL1        0.0312
     22 C         141.0157  137.7744  156.5022 C.ar    1  UNL1        0.1577
     23 F         140.1704  138.9796  156.7899 F       1  UNL1       -0.2026
     24 S         141.3991  140.3628  168.4291 S.O2    1  UNL1        0.0087
     25 O         142.7462  139.8359  168.0317 O.2     1  UNL1       -0.1686
     26 O         140.0520  140.8896  168.8265 O.2     1  UNL1       -0.1686
     27 C         142.6417  138.6994  169.9909 C.3     1  UNL1        0.0276
     28 C         141.5096  139.6524  169.7456 C.3     1  UNL1        0.1560
     29 O         140.9572  143.2042  163.1632 O.3     1  UNL1       -0.4702
     30 C         141.1881  144.6844  163.0880 C.3     1  UNL1        0.2599
     31 C         142.4148  145.2846  163.7083 C.3     1  UNL1        0.0566
     32 C         140.1923  145.5645  162.3924 C.3     1  UNL1        0.4340
     33 F         139.1965  146.4447  161.6967 F       1  UNL1       -0.1664
     34 F         139.2739  145.4592  163.5737 F       1  UNL1       -0.1664
     35 F         141.1107  145.6699  161.2111 F       1  UNL1       -0.1664
@<TRIPOS>BOND
     1    27    28    1
     2    28    24    1
     3    24    25    2
     4    24    26    2
     5    24     1    1
     6     1     2   ar
     7     2     3   ar
     8     3     4   ar
     9     4    29    1
    10    29    30    1
    11    30    31    1
    12    30    32    1
    13    32    33    1
    14    32    34    1
    15    32    35    1
    16     4     5   ar
    17     5     7    1
    18     7     8    2
    19     7     9   am
    20     9    10    1
    21    10    11    1
    22    11    12   ar
    23    12    13   ar
    24    13    17    1
    25    17    18   ar
    26    18    19   ar
    27    19    20   ar
    28    20    21   ar
    29    21    22   ar
    30    22    23    1
    31    13    14   ar
    32    14    15   ar
    33    15    16    1
    34     5     6   ar
    35     6     1   ar
    36    16     9    1
    37    15    11   ar
    38    22    17   ar
@<TRIPOS>MOLECULE
*****
 35 38 0 0 0
SMALL
GASTEIGER

@<TRIPOS>ATOM
      1 C         142.5772  143.0007  158.2762 C.ar    1  UNL1        0.1060
      2 C         142.1584  144.4406  158.2414 C.ar    1  UNL1        0.0215
      3 C         140.9923  144.9027  159.0640 C.ar    1  UNL1        0.0384
      4 C         140.2450  143.9247  159.9215 C.ar    1  UNL1        0.1432
      5 C         140.6638  142.4848  159.9564 C.ar    1  UNL1        0.0888
      6 C         141.8299  142.0228  159.1337 C.ar    1  UNL1        0.0259
      7 C         139.9165  141.5070  160.8139 C.2     1  UNL1        0.2525
      8 O         138.8528  140.6393  160.2093 O.2     1  UNL1       -0.2698
      9 N         140.2329  141.3968  162.2760 N.am    1  UNL1       -0.2660
     10 C         141.2649  142.1941  163.0173 C.3     1  UNL1        0.1236
     11 C         141.2426  141.7600  164.4529 C.ar    1  UNL1        0.0338
     12 C         141.8667  141.9845  165.7983 C.ar    1  UNL1        0.0991
     13 N         141.2068  141.0578  166.7759 N.ar    1  UNL1       -0.2265
     14 N         140.1748  140.2604  166.0346 N.ar    1  UNL1       -0.1679
     15 C         140.1970  140.6945  164.5989 C.ar    1  UNL1        0.0981
     16 C         139.5730  140.4700  163.2535 C.3     1  UNL1        0.1414
     17 C         141.5231  140.9476  168.2379 C.ar    1  UNL1        0.1102
     18 C         142.2213  139.7289  168.7645 C.ar    1  UNL1        0.0214
     19 C         142.5377  139.6186  170.2266 C.ar    1  UNL1        0.0017
     20 C         142.1560  140.7272  171.1622 C.ar    1  UNL1        0.0024
     21 C         141.4578  141.9461  170.6356 C.ar    1  UNL1        0.0312
     22 C         141.1414  142.0562  169.1736 C.ar    1  UNL1        0.1577
     23 F         140.4433  143.2750  168.6470 F       1  UNL1       -0.2026
     24 S         143.7433  142.5386  157.4536 S.O2    1  UNL1        0.0087
     25 O         144.1797  141.6433  158.5751 O.2     1  UNL1       -0.1686
     26 O         143.3068  143.4340  156.3320 O.2     1  UNL1       -0.1686
     27 C         145.1850  140.6101  156.4778 C.3     1  UNL1        0.0276
     28 C         144.9094  142.0766  156.6309 C.3     1  UNL1        0.1560
     29 O         139.0789  144.3868  160.7442 O.3     1  UNL1       -0.4702
     30 C         139.2966  144.8767  162.1451 C.3     1  UNL1        0.2599
     31 C         140.4245  145.8196  162.4431 C.3     1  UNL1        0.0566
     32 C         138.3864  144.4239  163.2480 C.3     1  UNL1        0.4340
     33 F         137.4762  143.9710  164.3510 F       1  UNL1       -0.1664
     34 F         137.6201  143.5830  162.2704 F       1  UNL1       -0.1664
     35 F         139.1527  145.2647  164.2256 F       1  UNL1       -0.1664
@<TRIPOS>BOND
     1    27    28    1
     2    28    24    1
     3    24    25    2
     4    24    26    2
     5    24     1    1
     6     1     2   ar
     7     2     3   ar
     8     3     4   ar
     9     4    29    1
    10    29    30    1
    11    30    31    1
    12    30    32    1
    13    32    33    1
    14    32    34    1
    15    32    35    1
    16     4     5   ar
    17     5     7    1
    18     7     8    2
    19     7     9   am
    20     9    10    1
    21    10    11    1
    22    11    12   ar
    23    12    13   ar
    24    13    17    1
    25    17    18   ar
    26    18    19   ar
    27    19    20   ar
    28    20    21   ar
    29    21    22   ar
    30    22    23    1
    31    13    14   ar
    32    14    15   ar
    33    15    16    1
    34     5     6   ar
    35     6     1   ar
    36    16     9    1
    37    15    11   ar
    38    22    17   ar
@<TRIPOS>MOLECULE
*****
 35 38 0 0 0
SMALL
GASTEIGER

@<TRIPOS>ATOM
      1 C         141.1296  141.9493  166.6187 C.ar    1  UNL1        0.1060
      2 C         140.0993  140.8598  166.5787 C.ar    1  UNL1        0.0215
      3 C         139.1786  140.7412  165.4005 C.ar    1  UNL1        0.0384
      4 C         139.2881  141.7121  164.2623 C.ar    1  UNL1        0.1432
      5 C         140.3184  142.8016  164.3024 C.ar    1  UNL1        0.0888
      6 C         141.2391  142.9202  165.4806 C.ar    1  UNL1        0.0259
      7 C         140.4279  143.7724  163.1642 C.2     1  UNL1        0.2525
      8 O         139.6333  145.0445  163.1844 O.2     1  UNL1       -0.2698
      9 N         141.3319  143.4712  162.0058 N.am    1  UNL1       -0.2660
     10 C         142.1833  142.2465  161.8470 C.3     1  UNL1        0.1236
     11 C         142.9209  142.3602  160.5459 C.ar    1  UNL1        0.0338
     12 C         143.9029  141.6736  159.6436 C.ar    1  UNL1        0.0991
     13 N         144.1143  142.5442  158.4405 N.ar    1  UNL1       -0.2265
     14 N         143.2629  143.7689  158.5992 N.ar    1  UNL1       -0.1679
     15 C         142.5253  143.6552  159.9004 C.ar    1  UNL1        0.0981
     16 C         141.5433  144.3418  160.8027 C.3     1  UNL1        0.1414
     17 C         145.0183  142.2430  157.2821 C.ar    1  UNL1        0.1102
     18 C         144.4651  141.5948  156.0477 C.ar    1  UNL1        0.0214
     19 C         145.3691  141.2935  154.8892 C.ar    1  UNL1        0.0017
     20 C         146.8264  141.6405  154.9652 C.ar    1  UNL1        0.0024
     21 C         147.3797  142.2887  156.1997 C.ar    1  UNL1        0.0312
     22 C         146.4757  142.5899  157.3580 C.ar    1  UNL1        0.1577
     23 F         147.0290  143.2381  158.5924 F       1  UNL1       -0.2026
     24 S         142.0503  142.0679  167.7969 S.O2    1  UNL1        0.0087
     25 O         143.2291  142.1183  166.8706 O.2     1  UNL1       -0.1686
     26 O         140.8716  142.0175  168.7232 O.2     1  UNL1       -0.1686
     27 C         143.1292  141.0344  169.9225 C.3     1  UNL1        0.0276
     28 C         142.9711  142.1866  168.9751 C.3     1  UNL1        0.1560
     29 O         138.3674  141.5935  163.0842 O.3     1  UNL1       -0.4702
     30 C         138.7389  140.7136  161.9275 C.3     1  UNL1        0.2599
     31 C         138.8572  141.2956  160.5501 C.3     1  UNL1        0.0566
     32 C         138.9921  139.2517  162.1483 C.3     1  UNL1        0.4340
     33 F         139.2455  137.7898  162.3690 F       1  UNL1       -0.1664
     34 F         137.5137  138.9996  162.1750 F       1  UNL1       -0.1664
     35 F         140.4705  139.5038  162.1215 F       1  UNL1       -0.1664
@<TRIPOS>BOND
     1    27    28    1
     2    28    24    1
     3    24    25    2
     4    24    26    2
     5    24     1    1
     6     1     2   ar
     7     2     3   ar
     8     3     4   ar
     9     4    29    1
    10    29    30    1
    11    30    31    1
    12    30    32    1
    13    32    33    1
    14    32    34    1
    15    32    35    1
    16     4     5   ar
    17     5     7    1
    18     7     8    2
    19     7     9   am
    20     9    10    1
    21    10    11    1
    22    11    12   ar
    23    12    13   ar
    24    13    17    1
    25    17    18   ar
    26    18    19   ar
    27    19    20   ar
    28    20    21   ar
    29    21    22   ar
    30    22    23    1
    31    13    14   ar
    32    14    15   ar
    33    15    16    1
    34     5     6   ar
    35     6     1   ar
    36    16     9    1
    37    15    11   ar
    38    22    17   ar
