@<TRIPOS>MOLECULE
*****
 19 21 0 0 0
SMALL
GASTEIGER

@<TRIPOS>ATOM
      1 C         140.0299  140.5423  167.4504 C.3     1  UNL1        0.0364
      2 C         139.9465  140.2785  168.9246 C.3     1  UNL1        0.0236
      3 C         140.1702  139.9576  170.3727 C.3     1  UNL1        0.0690
      4 N         141.6224  139.6294  170.5557 N.3     1  UNL1       -0.2972
      5 C         142.2961  139.7474  169.2207 C.3     1  UNL1        0.0727
      6 C         141.2603  140.1486  168.2126 C.3     1  UNL1        0.0372
      7 H         141.7202  138.6779  170.9099 H       1  UNL1        0.1233
      8 C         142.1912  140.1843  167.0370 C.ar    1  UNL1       -0.0205
      9 C         142.5023  138.9224  166.2880 C.ar    1  UNL1       -0.0033
     10 C         143.4332  138.9581  165.1124 C.ar    1  UNL1        0.0119
     11 C         144.0530  140.2557  164.6857 C.ar    1  UNL1        0.0682
     12 CL        144.9839  140.2913  163.5101 Cl      1  UNL1       -0.0814
     13 C         143.7420  141.5175  165.4347 C.ar    1  UNL1        0.0679
     14 CL        144.3618  142.8152  165.0080 Cl      1  UNL1       -0.0814
     15 C         142.8110  141.4818  166.6103 C.ar    1  UNL1        0.0080
     16 C         139.3677  140.9219  166.1591 C.3     1  UNL1        0.1425
     17 O         138.2993  140.0441  165.5777 O.3     1  UNL1       -0.3538
     18 C         139.1235  137.6296  165.0869 C.3     1  UNL1        0.0346
     19 C         138.2821  138.5769  165.8897 C.3     1  UNL1        0.1422
@<TRIPOS>BOND
     1    18    19    1
     2    19    17    1
     3    17    16    1
     4     1    16    1
     5     1     2    1
     6     2     3    1
     7     3     4    1
     8     4     5    1
     9     5     6    1
    10     6     8    1
    11     8     9   ar
    12     9    10   ar
    13    10    11   ar
    14    11    12    1
    15    11    13   ar
    16    13    14    1
    17    13    15   ar
    18     6     1    1
    19    15     8   ar
    20     6     2    1
    21     4     7    1
@<TRIPOS>MOLECULE
*****
 19 21 0 0 0
SMALL
GASTEIGER

@<TRIPOS>ATOM
      1 C         142.7595  142.1796  166.9747 C.3     1  UNL1        0.0364
      2 C         143.3288  142.3025  168.3570 C.3     1  UNL1        0.0236
      3 C         143.7826  142.1364  169.7770 C.3     1  UNL1        0.0690
      4 N         143.3492  140.7793  170.2464 N.3     1  UNL1       -0.2972
      5 C         142.6274  140.1067  169.1165 C.3     1  UNL1        0.0727
      6 C         142.6148  141.0481  167.9488 C.3     1  UNL1        0.0372
      7 H         142.7258  140.8731  171.0482 H       1  UNL1        0.1233
      8 C         141.8628  140.1389  167.0225 C.ar    1  UNL1       -0.0205
      9 C         142.6074  139.1571  166.1671 C.ar    1  UNL1       -0.0033
     10 C         141.8554  138.2480  165.2409 C.ar    1  UNL1        0.0119
     11 C         140.3589  138.3207  165.1700 C.ar    1  UNL1        0.0682
     12 CL        139.6070  137.4115  164.2437 Cl      1  UNL1       -0.0814
     13 C         139.6144  139.3025  166.0253 C.ar    1  UNL1        0.0679
     14 CL        138.1177  139.3752  165.9544 Cl      1  UNL1       -0.0814
     15 C         140.3664  140.2116  166.9516 C.ar    1  UNL1        0.0080
     16 C         142.5142  142.7619  165.6143 C.3     1  UNL1        0.1425
     17 O         143.1905  142.1714  164.4127 O.3     1  UNL1       -0.3538
     18 C         145.2779  140.6619  164.0744 C.3     1  UNL1        0.0346
     19 C         144.6806  141.9988  164.3999 C.3     1  UNL1        0.1422
@<TRIPOS>BOND
     1    18    19    1
     2    19    17    1
     3    17    16    1
     4     1    16    1
     5     1     2    1
     6     2     3    1
     7     3     4    1
     8     4     5    1
     9     5     6    1
    10     6     8    1
    11     8     9   ar
    12     9    10   ar
    13    10    11   ar
    14    11    12    1
    15    11    13   ar
    16    13    14    1
    17    13    15   ar
    18     6     1    1
    19    15     8   ar
    20     6     2    1
    21     4     7    1
@<TRIPOS>MOLECULE
*****
 19 21 0 0 0
SMALL
GASTEIGER

@<TRIPOS>ATOM
      1 C         142.7180  141.8076  167.2629 C.3     1  UNL1        0.0364
      2 C         142.9115  142.3189  168.6597 C.3     1  UNL1        0.0236
      3 C         142.7983  142.8938  170.0406 C.3     1  UNL1        0.0690
      4 N         141.3719  143.3048  170.2561 N.3     1  UNL1       -0.2972
      5 C         140.6035  142.9838  169.0084 C.3     1  UNL1        0.0727
      6 C         141.5550  142.3746  168.0218 C.3     1  UNL1        0.0372
      7 H         141.3247  144.3063  170.4436 H       1  UNL1        0.1233
      8 C         140.5435  142.1721  166.9329 C.ar    1  UNL1       -0.0205
      9 C         140.2630  143.2747  165.9553 C.ar    1  UNL1       -0.0033
     10 C         139.2515  143.0723  164.8663 C.ar    1  UNL1        0.0119
     11 C         138.5204  141.7673  164.7550 C.ar    1  UNL1        0.0682
     12 CL        137.5089  141.5649  163.6660 Cl      1  UNL1       -0.0814
     13 C         138.8008  140.6648  165.7325 C.ar    1  UNL1        0.0679
     14 CL        138.0697  139.3597  165.6212 Cl      1  UNL1       -0.0814
     15 C         139.8124  140.8672  166.8215 C.ar    1  UNL1        0.0080
     16 C         143.2778  141.1850  166.0183 C.3     1  UNL1        0.1425
     17 O         144.1452  141.9939  165.0999 O.3     1  UNL1       -0.3538
     18 C         143.8601  144.4744  164.3819 C.3     1  UNL1        0.0346
     19 C         144.3582  143.4552  165.3633 C.3     1  UNL1        0.1422
@<TRIPOS>BOND
     1    18    19    1
     2    19    17    1
     3    17    16    1
     4     1    16    1
     5     1     2    1
     6     2     3    1
     7     3     4    1
     8     4     5    1
     9     5     6    1
    10     6     8    1
    11     8     9   ar
    12     9    10   ar
    13    10    11   ar
    14    11    12    1
    15    11    13   ar
    16    13    14    1
    17    13    15   ar
    18     6     1    1
    19    15     8   ar
    20     6     2    1
    21     4     7    1
@<TRIPOS>MOLECULE
*****
 19 21 0 0 0
SMALL
GASTEIGER

@<TRIPOS>ATOM
      1 C         140.5188  142.4774  167.4790 C.3     1  UNL1        0.0364
      2 C         140.2067  142.6789  168.9323 C.3     1  UNL1        0.0236
      3 C         139.8815  142.5672  170.3923 C.3     1  UNL1        0.0690
      4 N         139.7536  141.1110  170.7286 N.3     1  UNL1       -0.2972
      5 C         139.9998  140.3227  169.4764 C.3     1  UNL1        0.0727
      6 C         140.2798  141.2917  168.3662 C.3     1  UNL1        0.0372
      7 H         138.8159  140.9180  171.0804 H       1  UNL1        0.1233
      8 C         140.4761  140.2556  167.2994 C.ar    1  UNL1       -0.0205
      9 C         139.2885  139.6735  166.5918 C.ar    1  UNL1       -0.0033
     10 C         139.4847  138.6373  165.5250 C.ar    1  UNL1        0.0119
     11 C         140.8685  138.1833  165.1660 C.ar    1  UNL1        0.0682
     12 CL        141.0647  137.1472  164.0993 Cl      1  UNL1       -0.0814
     13 C         142.0561  138.7654  165.8737 C.ar    1  UNL1        0.0679
     14 CL        143.4400  138.3114  165.5147 Cl      1  UNL1       -0.0814
     15 C         141.8598  139.8016  166.9405 C.ar    1  UNL1        0.0080
     16 C         140.8370  143.0456  166.1277 C.3     1  UNL1        0.1425
     17 O         139.9252  142.7768  164.9674 O.3     1  UNL1       -0.3538
     18 C         138.5421  144.9147  165.4836 C.3     1  UNL1        0.0346
     19 C         138.6796  143.5930  164.7877 C.3     1  UNL1        0.1422
@<TRIPOS>BOND
     1    18    19    1
     2    19    17    1
     3    17    16    1
     4     1    16    1
     5     1     2    1
     6     2     3    1
     7     3     4    1
     8     4     5    1
     9     5     6    1
    10     6     8    1
    11     8     9   ar
    12     9    10   ar
    13    10    11   ar
    14    11    12    1
    15    11    13   ar
    16    13    14    1
    17    13    15   ar
    18     6     1    1
    19    15     8   ar
    20     6     2    1
    21     4     7    1
@<TRIPOS>MOLECULE
*****
 19 21 0 0 0
SMALL
GASTEIGER

@<TRIPOS>ATOM
      1 C         142.1047  140.0839  167.1964 C.3     1  UNL1        0.0364
      2 C         142.0908  139.6817  168.6414 C.3     1  UNL1        0.0236
      3 C         141.7769  139.3704  170.0748 C.3     1  UNL1        0.0690
      4 N         140.3395  139.7212  170.3212 N.3     1  UNL1       -0.2972
      5 C         139.7650  140.2493  169.0402 C.3     1  UNL1        0.0727
      6 C         140.8473  140.2249  168.0020 C.3     1  UNL1        0.0372
      7 H         140.2769  140.4338  171.0484 H       1  UNL1        0.1233
      8 C         140.0099  140.7824  166.8893 C.ar    1  UNL1       -0.0205
      9 C         139.0681  139.8881  166.1389 C.ar    1  UNL1       -0.0033
     10 C         138.2307  140.4457  165.0263 C.ar    1  UNL1        0.0119
     11 C         138.3352  141.8975  164.6641 C.ar    1  UNL1        0.0682
     12 CL        137.4978  142.4551  163.5515 Cl      1  UNL1       -0.0814
     13 C         139.2771  142.7918  165.4145 C.ar    1  UNL1        0.0679
     14 CL        139.3816  144.2437  165.0523 Cl      1  UNL1       -0.0814
     15 C         140.1144  142.2342  166.5272 C.ar    1  UNL1        0.0080
     16 C         142.8388  140.2347  165.8970 C.3     1  UNL1        0.1425
     17 O         142.4599  139.3872  164.7188 O.3     1  UNL1       -0.3538
     18 C         141.0292  137.2316  164.4818 C.3     1  UNL1        0.0346
     19 C         142.3100  137.9034  164.8795 C.3     1  UNL1        0.1422
@<TRIPOS>BOND
     1    18    19    1
     2    19    17    1
     3    17    16    1
     4     1    16    1
     5     1     2    1
     6     2     3    1
     7     3     4    1
     8     4     5    1
     9     5     6    1
    10     6     8    1
    11     8     9   ar
    12     9    10   ar
    13    10    11   ar
    14    11    12    1
    15    11    13   ar
    16    13    14    1
    17    13    15   ar
    18     6     1    1
    19    15     8   ar
    20     6     2    1
    21     4     7    1
@<TRIPOS>MOLECULE
*****
 19 21 0 0 0
SMALL
GASTEIGER

@<TRIPOS>ATOM
      1 C         142.6782  142.0823  167.1617 C.3     1  UNL1        0.0364
      2 C         142.8640  142.4165  168.6121 C.3     1  UNL1        0.0236
      3 C         142.7376  142.7812  170.0616 C.3     1  UNL1        0.0690
      4 N         141.2835  142.9967  170.3602 N.3     1  UNL1       -0.2972
      5 C         140.5112  142.7652  169.0953 C.3     1  UNL1        0.0727
      6 C         141.4880  142.4066  168.0149 C.3     1  UNL1        0.0372
      7 H         141.1350  143.9516  170.6866 H       1  UNL1        0.1233
      8 C         140.4669  142.2429  166.9284 C.ar    1  UNL1       -0.0205
      9 C         140.0955  143.4125  166.0657 C.ar    1  UNL1       -0.0033
     10 C         139.0744  143.2488  164.9792 C.ar    1  UNL1        0.0119
     11 C         138.4247  141.9156  164.7554 C.ar    1  UNL1        0.0682
     12 CL        137.4035  141.7519  163.6689 Cl      1  UNL1       -0.0814
     13 C         138.7960  140.7460  165.6181 C.ar    1  UNL1        0.0679
     14 CL        138.1462  139.4126  165.3942 Cl      1  UNL1       -0.0814
     15 C         139.8171  140.9097  166.7046 C.ar    1  UNL1        0.0080
     16 C         143.2582  141.7020  165.8316 C.3     1  UNL1        0.1425
     17 O         143.5333  140.2613  165.5176 O.3     1  UNL1       -0.3538
     18 C         143.8416  137.9300  166.6221 C.3     1  UNL1        0.0346
     19 C         143.0413  139.1855  166.4401 C.3     1  UNL1        0.1422
@<TRIPOS>BOND
     1    18    19    1
     2    19    17    1
     3    17    16    1
     4     1    16    1
     5     1     2    1
     6     2     3    1
     7     3     4    1
     8     4     5    1
     9     5     6    1
    10     6     8    1
    11     8     9   ar
    12     9    10   ar
    13    10    11   ar
    14    11    12    1
    15    11    13   ar
    16    13    14    1
    17    13    15   ar
    18     6     1    1
    19    15     8   ar
    20     6     2    1
    21     4     7    1
@<TRIPOS>MOLECULE
*****
 19 21 0 0 0
SMALL
GASTEIGER

@<TRIPOS>ATOM
      1 C         140.5159  142.2936  167.2888 C.3     1  UNL1        0.0364
      2 C         140.6438  142.9369  168.6378 C.3     1  UNL1        0.0236
      3 C         141.0704  143.4871  169.9664 C.3     1  UNL1        0.0690
      4 N         142.5261  143.1760  170.1511 N.3     1  UNL1       -0.2972
      5 C         142.9992  142.4336  168.9366 C.3     1  UNL1        0.0727
      6 C         141.8358  142.2858  168.0013 C.3     1  UNL1        0.0372
      7 H         142.6538  142.5980  170.9817 H       1  UNL1        0.1233
      8 C         142.5849  141.5417  166.9358 C.ar    1  UNL1       -0.0205
      9 C         142.5984  140.0418  166.9369 C.ar    1  UNL1       -0.0033
     10 C         143.3475  139.2978  165.8713 C.ar    1  UNL1        0.0119
     11 C         144.0829  140.0537  164.8047 C.ar    1  UNL1        0.0682
     12 CL        144.8319  139.3096  163.7392 Cl      1  UNL1       -0.0814
     13 C         144.0693  141.5536  164.8036 C.ar    1  UNL1        0.0679
     14 CL        144.8048  142.3095  163.7370 Cl      1  UNL1       -0.0814
     15 C         143.3203  142.2976  165.8692 C.ar    1  UNL1        0.0080
     16 C         139.6800  141.9267  166.0986 C.3     1  UNL1        0.1425
     17 O         139.9315  142.5842  164.7740 O.3     1  UNL1       -0.3538
     18 C         138.7419  144.8235  165.3401 C.3     1  UNL1        0.0346
     19 C         139.8437  144.0764  164.6488 C.3     1  UNL1        0.1422
@<TRIPOS>BOND
     1    18    19    1
     2    19    17    1
     3    17    16    1
     4     1    16    1
     5     1     2    1
     6     2     3    1
     7     3     4    1
     8     4     5    1
     9     5     6    1
    10     6     8    1
    11     8     9   ar
    12     9    10   ar
    13    10    11   ar
    14    11    12    1
    15    11    13   ar
    16    13    14    1
    17    13    15   ar
    18     6     1    1
    19    15     8   ar
    20     6     2    1
    21     4     7    1
@<TRIPOS>MOLECULE
*****
 19 21 0 0 0
SMALL
GASTEIGER

@<TRIPOS>ATOM
      1 C         142.3695  142.2120  167.1590 C.3     1  UNL1        0.0364
      2 C         143.1272  142.2748  168.4521 C.3     1  UNL1        0.0236
      3 C         143.7668  142.0505  169.7902 C.3     1  UNL1        0.0690
      4 N         143.3609  140.6906  170.2759 N.3     1  UNL1       -0.2972
      5 C         142.4704  140.0744  169.2379 C.3     1  UNL1        0.0727
      6 C         142.3259  141.0535  168.1108 C.3     1  UNL1        0.0372
      7 H         142.8569  140.7745  171.1587 H       1  UNL1        0.1233
      8 C         141.4263  140.1951  167.2718 C.ar    1  UNL1       -0.0205
      9 C         139.9485  140.1825  167.5284 C.ar    1  UNL1       -0.0033
     10 C         139.0489  139.3241  166.6894 C.ar    1  UNL1        0.0119
     11 C         139.6271  138.4784  165.5939 C.ar    1  UNL1        0.0682
     12 CL        138.7275  137.6200  164.7549 Cl      1  UNL1       -0.0814
     13 C         141.1049  138.4910  165.3373 C.ar    1  UNL1        0.0679
     14 CL        141.6832  137.6452  164.2417 Cl      1  UNL1       -0.0814
     15 C         142.0045  139.3494  166.1763 C.ar    1  UNL1        0.0080
     16 C         141.9573  142.8447  165.8630 C.3     1  UNL1        0.1425
     17 O         140.5133  143.1609  165.6086 O.3     1  UNL1       -0.3538
     18 C         138.2686  142.2997  164.6238 C.3     1  UNL1        0.0346
     19 C         139.7611  142.4239  164.5403 C.3     1  UNL1        0.1422
@<TRIPOS>BOND
     1    18    19    1
     2    19    17    1
     3    17    16    1
     4     1    16    1
     5     1     2    1
     6     2     3    1
     7     3     4    1
     8     4     5    1
     9     5     6    1
    10     6     8    1
    11     8     9   ar
    12     9    10   ar
    13    10    11   ar
    14    11    12    1
    15    11    13   ar
    16    13    14    1
    17    13    15   ar
    18     6     1    1
    19    15     8   ar
    20     6     2    1
    21     4     7    1
@<TRIPOS>MOLECULE
*****
 19 21 0 0 0
SMALL
GASTEIGER

@<TRIPOS>ATOM
      1 C         140.3763  142.6078  167.0502 C.3     1  UNL1        0.0364
      2 C         140.3286  143.1654  168.4419 C.3     1  UNL1        0.0236
      3 C         140.5733  143.6114  169.8530 C.3     1  UNL1        0.0690
      4 N         141.9620  143.1940  170.2367 N.3     1  UNL1       -0.2972
      5 C         142.5755  142.4900  169.0629 C.3     1  UNL1        0.0727
      6 C         141.5660  142.4723  167.9536 C.3     1  UNL1        0.0372
      7 H         141.9250  142.5636  171.0378 H       1  UNL1        0.1233
      8 C         142.4283  141.7400  166.9685 C.ar    1  UNL1       -0.0205
      9 C         143.2255  142.5060  165.9548 C.ar    1  UNL1       -0.0033
     10 C         144.0877  141.7736  164.9698 C.ar    1  UNL1        0.0119
     11 C         144.1527  140.2754  164.9985 C.ar    1  UNL1        0.0682
     12 CL        145.0150  139.5431  164.0135 Cl      1  UNL1       -0.0814
     13 C         143.3555  139.5094  166.0123 C.ar    1  UNL1        0.0679
     14 CL        143.4205  138.0110  166.0410 Cl      1  UNL1       -0.0814
     15 C         142.4932  140.2417  166.9973 C.ar    1  UNL1        0.0080
     16 C         139.7168  142.3640  165.7252 C.3     1  UNL1        0.1425
     17 O         138.7104  141.2613  165.5798 O.3     1  UNL1       -0.3538
     18 C         138.1598  138.9630  166.6590 C.3     1  UNL1        0.0346
     19 C         139.0982  139.8462  165.8912 C.3     1  UNL1        0.1422
@<TRIPOS>BOND
     1    18    19    1
     2    19    17    1
     3    17    16    1
     4     1    16    1
     5     1     2    1
     6     2     3    1
     7     3     4    1
     8     4     5    1
     9     5     6    1
    10     6     8    1
    11     8     9   ar
    12     9    10   ar
    13    10    11   ar
    14    11    12    1
    15    11    13   ar
    16    13    14    1
    17    13    15   ar
    18     6     1    1
    19    15     8   ar
    20     6     2    1
    21     4     7    1
