@<TRIPOS>MOLECULE
*****
 37 40 0 0 0
SMALL
GASTEIGER

@<TRIPOS>ATOM
      1 C         143.1737  138.7237  164.5209 C.ar    1  UNL1        0.1377
      2 C         142.0498  137.9396  163.9108 C.ar    1  UNL1        0.1397
      3 N         141.9957  137.7379  162.4255 N.ar    1  UNL1       -0.2027
      4 C         143.0656  138.3202  161.5501 C.ar    1  UNL1        0.2367
      5 N         144.1896  139.1042  162.1601 N.ar    1  UNL1       -0.1828
      6 C         144.2436  139.3059  163.6455 C.ar    1  UNL1        0.2339
      7 C         142.5697  140.2899  168.1170 C.3     1  UNL1        0.1109
      8 N         142.5157  140.0882  166.6316 N.am    1  UNL1       -0.2990
      9 C         143.2277  138.9254  166.0063 C.2     1  UNL1        0.2532
     10 O         143.9938  137.9644  166.8663 O.2     1  UNL1       -0.2699
     11 H         142.0129  140.7189  166.0672 H       1  UNL1        0.1498
     12 N         140.9799  137.3574  164.7862 N.pl3   1  UNL1       -0.3178
     13 H         141.2237  136.7648  165.5337 H       1  UNL1        0.1482
     14 C         139.5384  137.6779  164.5228 C.3     1  UNL1        0.0881
     15 C         139.1173  139.0976  164.2839 C.3     1  UNL1        0.0196
     16 C         138.5643  139.5014  162.9494 C.3     1  UNL1        0.0017
     17 C         138.1432  140.9211  162.7105 C.3     1  UNL1        0.0001
     18 C         138.2750  141.9370  163.8062 C.3     1  UNL1        0.0000
     19 C         137.6976  142.6911  162.6451 C.3     1  UNL1        0.0000
     20 C         137.6793  143.9449  163.4684 C.3     1  UNL1        0.0000
     21 C         138.2567  143.1908  164.6295 C.3     1  UNL1        0.0000
     22 C         138.8279  141.5331  165.1408 C.3     1  UNL1        0.0001
     23 C         139.2491  140.1134  165.3796 C.3     1  UNL1        0.0017
     24 C         143.0116  138.1184  160.0647 C.1     1  UNL1        0.1401
     25 N         142.9576  137.9167  158.5793 N.1     1  UNL1       -0.1876
     26 O         145.3675  140.0899  164.2555 O.3     1  UNL1       -0.4600
     27 C         145.6458  141.4884  163.7897 C.3     1  UNL1        0.2071
     28 C         144.5120  142.4465  163.5739 C.3     1  UNL1        0.0466
     29 C         144.2708  143.0286  162.2127 C.3     1  UNL1        0.0211
     30 C         143.1370  143.9867  161.9969 C.3     1  UNL1        0.0723
     31 N         142.2446  144.3628  163.1423 N.3     1  UNL1       -0.2706
     32 C         142.4858  143.7808  164.5036 C.3     1  UNL1        0.0723
     33 C         143.6196  142.8226  164.7193 C.3     1  UNL1        0.0211
     34 C         141.1108  145.3210  162.9265 C.3     1  UNL1        0.1042
     35 C         140.4926  145.4573  161.5667 C.3     1  UNL1        0.1544
     36 O         139.3500  146.4056  161.3539 O.3     1  UNL1       -0.3805
     37 H         138.5774  146.0982  161.8535 H       1  UNL1        0.2105
@<TRIPOS>BOND
     1     7     8    1
     2     8     9   am
     3     9    10    2
     4     9     1    1
     5     1     2   ar
     6     2    12    1
     7    12    14    1
     8    14    15    1
     9    15    16    1
    10    16    17    1
    11    17    18    1
    12    18    19    1
    13    19    20    1
    14    20    21    1
    15    18    22    1
    16    22    23    1
    17     2     3   ar
    18     3     4   ar
    19     4    24    1
    20    24    25    3
    21     4     5   ar
    22     5     6   ar
    23     6    26    1
    24    26    27    1
    25    27    28    1
    26    28    29    1
    27    29    30    1
    28    30    31    1
    29    31    34    1
    30    34    35    1
    31    35    36    1
    32    31    32    1
    33    32    33    1
    34     6     1   ar
    35    33    28    1
    36    23    15    1
    37    21    18    1
    38     8    11    1
    39    12    13    1
    40    36    37    1
@<TRIPOS>MOLECULE
*****
 37 40 0 0 0
SMALL
GASTEIGER

@<TRIPOS>ATOM
      1 C         140.6987  144.1994  161.8604 C.ar    1  UNL1        0.1377
      2 C         140.2998  143.4414  160.6289 C.ar    1  UNL1        0.1397
      3 N         141.3467  142.9884  159.6550 N.ar    1  UNL1       -0.2027
      4 C         142.7927  143.2934  159.9124 C.ar    1  UNL1        0.2367
      5 N         143.1917  144.0514  161.1437 N.ar    1  UNL1       -0.1828
      6 C         142.1447  144.5044  162.1178 C.ar    1  UNL1        0.2339
      7 C         138.7886  144.8574  165.2763 C.3     1  UNL1        0.1109
      8 N         139.8356  144.4045  164.3023 N.am    1  UNL1       -0.2990
      9 C         139.6518  144.6524  162.8343 C.2     1  UNL1        0.2532
     10 O         138.4210  145.3532  162.3404 O.2     1  UNL1       -0.2699
     11 H         140.6434  143.9445  164.6265 H       1  UNL1        0.1498
     12 N         138.8538  143.1364  160.3716 N.pl3   1  UNL1       -0.3178
     13 H         138.2188  143.8693  160.2019 H       1  UNL1        0.1482
     14 C         138.3755  141.7148  160.3727 C.3     1  UNL1        0.0881
     15 C         138.4143  140.9114  161.6388 C.3     1  UNL1        0.0196
     16 C         137.9628  141.5253  162.9308 C.3     1  UNL1        0.0017
     17 C         138.0016  140.7219  164.1969 C.3     1  UNL1        0.0001
     18 C         138.4919  139.3045  164.1710 C.3     1  UNL1        0.0000
     19 C         138.1349  139.5658  165.6044 C.3     1  UNL1        0.0000
     20 C         138.5468  138.1683  165.9616 C.3     1  UNL1        0.0000
     21 C         138.9038  137.9071  164.5283 C.3     1  UNL1        0.0000
     22 C         138.9433  138.6906  162.8790 C.3     1  UNL1        0.0001
     23 C         138.9045  139.4940  161.6129 C.3     1  UNL1        0.0017
     24 C         143.8396  142.8404  158.9384 C.1     1  UNL1        0.1401
     25 N         144.8866  142.3874  157.9644 N.1     1  UNL1       -0.1876
     26 O         142.5437  145.2623  163.3491 O.3     1  UNL1       -0.4600
     27 C         143.6022  144.7122  164.2584 C.3     1  UNL1        0.2071
     28 C         143.6967  143.2333  164.4908 C.3     1  UNL1        0.0466
     29 C         142.6279  142.5269  165.2709 C.3     1  UNL1        0.0211
     30 C         142.7224  141.0481  165.5034 C.3     1  UNL1        0.0723
     31 N         143.8857  140.2756  164.9556 N.3     1  UNL1       -0.2706
     32 C         144.9545  140.9820  164.1755 C.3     1  UNL1        0.0723
     33 C         144.8600  142.4608  163.9431 C.3     1  UNL1        0.0211
     34 C         143.9802  138.7967  165.1881 C.3     1  UNL1        0.1042
     35 C         143.7045  138.2325  166.5503 C.3     1  UNL1        0.1544
     36 O         144.5855  137.1539  167.1076 O.3     1  UNL1       -0.3805
     37 H         144.4871  136.3489  166.5755 H       1  UNL1        0.2105
@<TRIPOS>BOND
     1     7     8    1
     2     8     9   am
     3     9    10    2
     4     9     1    1
     5     1     2   ar
     6     2    12    1
     7    12    14    1
     8    14    15    1
     9    15    16    1
    10    16    17    1
    11    17    18    1
    12    18    19    1
    13    19    20    1
    14    20    21    1
    15    18    22    1
    16    22    23    1
    17     2     3   ar
    18     3     4   ar
    19     4    24    1
    20    24    25    3
    21     4     5   ar
    22     5     6   ar
    23     6    26    1
    24    26    27    1
    25    27    28    1
    26    28    29    1
    27    29    30    1
    28    30    31    1
    29    31    34    1
    30    34    35    1
    31    35    36    1
    32    31    32    1
    33    32    33    1
    34     6     1   ar
    35    33    28    1
    36    23    15    1
    37    21    18    1
    38     8    11    1
    39    12    13    1
    40    36    37    1
@<TRIPOS>MOLECULE
*****
 37 40 0 0 0
SMALL
GASTEIGER

@<TRIPOS>ATOM
      1 C         138.5502  142.6838  163.2951 C.ar    1  UNL1        0.1377
      2 C         138.6770  143.5222  162.0577 C.ar    1  UNL1        0.1397
      3 N         138.5204  142.8920  160.7055 N.ar    1  UNL1       -0.2027
      4 C         138.2372  141.4235  160.5907 C.ar    1  UNL1        0.2367
      5 N         138.1104  140.5851  161.8281 N.ar    1  UNL1       -0.1828
      6 C         138.2669  141.2153  163.1803 C.ar    1  UNL1        0.2339
      7 C         139.9256  143.4527  166.9375 C.3     1  UNL1        0.1109
      8 N         139.7690  142.8225  165.5854 N.am    1  UNL1       -0.2990
      9 C         138.7067  143.3140  164.6472 C.2     1  UNL1        0.2532
     10 O         137.8010  144.4357  165.0613 O.2     1  UNL1       -0.2699
     11 H         140.3635  142.0863  165.3136 H       1  UNL1        0.1498
     12 N         138.9602  144.9907  162.1724 N.pl3   1  UNL1       -0.3178
     13 H         138.2371  145.6143  162.4123 H       1  UNL1        0.1482
     14 C         140.3453  145.5092  161.9218 C.3     1  UNL1        0.0881
     15 C         141.5359  144.7196  162.3789 C.3     1  UNL1        0.0196
     16 C         141.9962  144.8136  163.8034 C.3     1  UNL1        0.0017
     17 C         143.1868  144.0240  164.2605 C.3     1  UNL1        0.0001
     18 C         143.9171  143.1404  163.2932 C.3     1  UNL1        0.0000
     19 C         144.6488  142.9812  164.5929 C.3     1  UNL1        0.0000
     20 C         145.6009  142.0236  163.9397 C.3     1  UNL1        0.0000
     21 C         144.8692  142.1828  162.6399 C.3     1  UNL1        0.0000
     22 C         143.4567  143.0463  161.8687 C.3     1  UNL1        0.0001
     23 C         142.2661  143.8359  161.4116 C.3     1  UNL1        0.0017
     24 C         138.0806  140.7933  159.2386 C.1     1  UNL1        0.1401
     25 N         137.9241  140.1631  157.8864 N.1     1  UNL1       -0.1876
     26 O         138.1402  140.3770  164.4177 O.3     1  UNL1       -0.4600
     27 C         139.2261  139.4085  164.7820 C.3     1  UNL1        0.2071
     28 C         139.9656  139.5635  166.0779 C.3     1  UNL1        0.0466
     29 C         139.2069  139.7906  167.3517 C.3     1  UNL1        0.0211
     30 C         139.9463  139.9455  168.6476 C.3     1  UNL1        0.0723
     31 N         141.4444  139.8735  168.6695 N.3     1  UNL1       -0.2706
     32 C         142.2031  139.6464  167.3956 C.3     1  UNL1        0.0723
     33 C         141.4637  139.4915  166.0998 C.3     1  UNL1        0.0211
     34 C         142.1838  140.0285  169.9654 C.3     1  UNL1        0.1042
     35 C         141.6859  140.9909  171.0025 C.3     1  UNL1        0.1544
     36 O         140.6773  140.5432  172.0185 O.3     1  UNL1       -0.3805
     37 H         139.8404  140.3364  171.5738 H       1  UNL1        0.2105
@<TRIPOS>BOND
     1     7     8    1
     2     8     9   am
     3     9    10    2
     4     9     1    1
     5     1     2   ar
     6     2    12    1
     7    12    14    1
     8    14    15    1
     9    15    16    1
    10    16    17    1
    11    17    18    1
    12    18    19    1
    13    19    20    1
    14    20    21    1
    15    18    22    1
    16    22    23    1
    17     2     3   ar
    18     3     4   ar
    19     4    24    1
    20    24    25    3
    21     4     5   ar
    22     5     6   ar
    23     6    26    1
    24    26    27    1
    25    27    28    1
    26    28    29    1
    27    29    30    1
    28    30    31    1
    29    31    34    1
    30    34    35    1
    31    35    36    1
    32    31    32    1
    33    32    33    1
    34     6     1   ar
    35    33    28    1
    36    23    15    1
    37    21    18    1
    38     8    11    1
    39    12    13    1
    40    36    37    1
@<TRIPOS>MOLECULE
*****
 37 40 0 0 0
SMALL
GASTEIGER

@<TRIPOS>ATOM
      1 C         143.9066  141.5844  161.4549 C.ar    1  UNL1        0.1377
      2 C         143.8447  143.0634  161.2120 C.ar    1  UNL1        0.1397
      3 N         143.0131  143.6045  160.0870 N.ar    1  UNL1       -0.2027
      4 C         142.2435  142.6667  159.2048 C.ar    1  UNL1        0.2367
      5 N         142.3053  141.1879  159.4477 N.ar    1  UNL1       -0.1828
      6 C         143.1369  140.6467  160.5728 C.ar    1  UNL1        0.2339
      7 C         145.0545  139.3676  164.5400 C.3     1  UNL1        0.1109
      8 N         144.2229  139.9087  163.4150 N.am    1  UNL1       -0.2990
      9 C         144.7381  141.0433  162.5799 C.2     1  UNL1        0.2532
     10 O         146.0849  141.6368  162.8699 O.2     1  UNL1       -0.2699
     11 H         143.3390  139.5192  163.2247 H       1  UNL1        0.1498
     12 N         144.6144  144.0012  162.0941 N.pl3   1  UNL1       -0.3178
     13 H         145.5766  144.1427  161.9411 H       1  UNL1        0.1482
     14 C         143.9181  144.7233  163.2093 C.3     1  UNL1        0.0881
     15 C         143.2128  143.9460  164.2810 C.3     1  UNL1        0.0196
     16 C         144.0064  143.2141  165.3223 C.3     1  UNL1        0.0017
     17 C         143.3011  142.4369  166.3939 C.3     1  UNL1        0.0001
     18 C         141.8021  142.3916  166.4243 C.3     1  UNL1        0.0000
     19 C         142.2394  141.5617  167.5949 C.3     1  UNL1        0.0000
     20 C         140.8046  141.2924  167.9399 C.3     1  UNL1        0.0000
     21 C         140.3674  142.1223  166.7694 C.3     1  UNL1        0.0000
     22 C         141.0085  143.1235  165.3830 C.3     1  UNL1        0.0001
     23 C         141.7138  143.9007  164.3113 C.3     1  UNL1        0.0017
     24 C         141.4119  143.2078  158.0798 C.1     1  UNL1        0.1401
     25 N         140.5803  143.7490  156.9548 N.1     1  UNL1       -0.1876
     26 O         143.1988  139.1678  160.8156 O.3     1  UNL1       -0.4600
     27 C         141.9549  138.3368  160.7045 C.3     1  UNL1        0.2071
     28 C         141.0947  138.1092  161.9121 C.3     1  UNL1        0.0466
     29 C         139.6167  138.3535  161.8369 C.3     1  UNL1        0.0211
     30 C         138.7565  138.1258  163.0445 C.3     1  UNL1        0.0723
     31 N         139.3744  137.6539  164.3272 N.3     1  UNL1       -0.2706
     32 C         140.8524  137.4096  164.4024 C.3     1  UNL1        0.0723
     33 C         141.7125  137.6372  163.1949 C.3     1  UNL1        0.0211
     34 C         138.5141  137.4262  165.5348 C.3     1  UNL1        0.1042
     35 C         138.0983  138.5869  166.3891 C.3     1  UNL1        0.1544
     36 O         137.3987  138.3453  167.6937 O.3     1  UNL1       -0.3805
     37 H         136.5299  137.9478  167.5259 H       1  UNL1        0.2105
@<TRIPOS>BOND
     1     7     8    1
     2     8     9   am
     3     9    10    2
     4     9     1    1
     5     1     2   ar
     6     2    12    1
     7    12    14    1
     8    14    15    1
     9    15    16    1
    10    16    17    1
    11    17    18    1
    12    18    19    1
    13    19    20    1
    14    20    21    1
    15    18    22    1
    16    22    23    1
    17     2     3   ar
    18     3     4   ar
    19     4    24    1
    20    24    25    3
    21     4     5   ar
    22     5     6   ar
    23     6    26    1
    24    26    27    1
    25    27    28    1
    26    28    29    1
    27    29    30    1
    28    30    31    1
    29    31    34    1
    30    34    35    1
    31    35    36    1
    32    31    32    1
    33    32    33    1
    34     6     1   ar
    35    33    28    1
    36    23    15    1
    37    21    18    1
    38     8    11    1
    39    12    13    1
    40    36    37    1
@<TRIPOS>MOLECULE
*****
 37 40 0 0 0
SMALL
GASTEIGER

@<TRIPOS>ATOM
      1 C         141.0258  138.6174  162.9774 C.ar    1  UNL1        0.1377
      2 C         139.5568  138.6260  162.6739 C.ar    1  UNL1        0.1397
      3 N         138.5645  138.3395  163.7617 N.ar    1  UNL1       -0.2027
      4 C         139.0412  138.0445  165.1530 C.ar    1  UNL1        0.2367
      5 N         140.5101  138.0359  165.4565 N.ar    1  UNL1       -0.1828
      6 C         141.5024  138.3224  164.3687 C.ar    1  UNL1        0.2339
      7 C         144.0905  140.2077  161.0209 C.3     1  UNL1        0.1109
      8 N         143.0983  139.9213  162.1087 N.am    1  UNL1       -0.2990
      9 C         142.0180  138.9039  161.8896 C.2     1  UNL1        0.2532
     10 O         141.9300  138.1730  160.5827 O.2     1  UNL1       -0.2699
     11 H         143.1561  140.4010  162.9665 H       1  UNL1        0.1498
     12 N         139.0801  138.9210  161.2826 N.pl3   1  UNL1       -0.3178
     13 H         139.0132  138.1951  160.6209 H       1  UNL1        0.1482
     14 C         138.7053  140.3219  160.8995 C.3     1  UNL1        0.0881
     15 C         138.7021  141.4073  161.9349 C.3     1  UNL1        0.0196
     16 C         137.4709  141.6589  162.7538 C.3     1  UNL1        0.0017
     17 C         137.4676  142.7442  163.7892 C.3     1  UNL1        0.0001
     18 C         138.6956  143.5779  164.0057 C.3     1  UNL1        0.0000
     19 C         137.6893  144.1077  164.9838 C.3     1  UNL1        0.0000
     20 C         138.6911  145.1129  165.4700 C.3     1  UNL1        0.0000
     21 C         139.6974  144.5830  164.4919 C.3     1  UNL1        0.0000
     22 C         139.9269  143.3263  163.1867 C.3     1  UNL1        0.0001
     23 C         139.9301  142.2409  162.1513 C.3     1  UNL1        0.0017
     24 C         138.0490  137.7580  166.2408 C.1     1  UNL1        0.1401
     25 N         137.0567  137.4715  167.3287 N.1     1  UNL1       -0.1876
     26 O         142.9714  138.3139  164.6722 O.3     1  UNL1       -0.4600
     27 C         143.4447  138.4244  166.0913 C.3     1  UNL1        0.2071
     28 C         142.9526  139.5431  166.9610 C.3     1  UNL1        0.0466
     29 C         142.5786  139.2744  168.3886 C.3     1  UNL1        0.0211
     30 C         142.0865  140.3931  169.2582 C.3     1  UNL1        0.0723
     31 N         141.9684  141.7805  168.7004 N.3     1  UNL1       -0.2706
     32 C         142.3424  142.0492  167.2728 C.3     1  UNL1        0.0723
     33 C         142.8345  140.9305  166.4032 C.3     1  UNL1        0.0211
     34 C         141.4763  142.8992  169.5701 C.3     1  UNL1        0.1042
     35 C         140.2934  142.6868  170.4676 C.3     1  UNL1        0.1544
     36 O         140.4989  142.2615  171.8912 O.3     1  UNL1       -0.3805
     37 H         140.8795  141.3695  171.9105 H       1  UNL1        0.2105
@<TRIPOS>BOND
     1     7     8    1
     2     8     9   am
     3     9    10    2
     4     9     1    1
     5     1     2   ar
     6     2    12    1
     7    12    14    1
     8    14    15    1
     9    15    16    1
    10    16    17    1
    11    17    18    1
    12    18    19    1
    13    19    20    1
    14    20    21    1
    15    18    22    1
    16    22    23    1
    17     2     3   ar
    18     3     4   ar
    19     4    24    1
    20    24    25    3
    21     4     5   ar
    22     5     6   ar
    23     6    26    1
    24    26    27    1
    25    27    28    1
    26    28    29    1
    27    29    30    1
    28    30    31    1
    29    31    34    1
    30    34    35    1
    31    35    36    1
    32    31    32    1
    33    32    33    1
    34     6     1   ar
    35    33    28    1
    36    23    15    1
    37    21    18    1
    38     8    11    1
    39    12    13    1
    40    36    37    1
@<TRIPOS>MOLECULE
*****
 37 40 0 0 0
SMALL
GASTEIGER

@<TRIPOS>ATOM
      1 C         140.3805  138.2430  163.8687 C.ar    1  UNL1        0.1377
      2 C         141.8709  138.0757  163.8376 C.ar    1  UNL1        0.1397
      3 N         142.5842  137.9499  162.5241 N.ar    1  UNL1       -0.2027
      4 C         141.8072  137.9912  161.2417 C.ar    1  UNL1        0.2367
      5 N         140.3169  138.1585  161.2727 N.ar    1  UNL1       -0.1828
      6 C         139.6035  138.2843  162.5863 C.ar    1  UNL1        0.2339
      7 C         137.7252  137.6769  166.7633 C.3     1  UNL1        0.1109
      8 N         138.4385  137.5510  165.4498 N.am    1  UNL1       -0.2990
      9 C         139.6672  138.3689  165.1822 C.2     1  UNL1        0.2532
     10 O         140.1825  139.3125  166.2281 O.2     1  UNL1       -0.2699
     11 H         138.1003  136.9317  164.7633 H       1  UNL1        0.1498
     12 N         142.6479  138.0344  165.1200 N.pl3   1  UNL1       -0.3178
     13 H         142.3485  137.4562  165.8585 H       1  UNL1        0.1482
     14 C         143.8809  138.8739  165.2773 C.3     1  UNL1        0.0881
     15 C         143.8808  140.3008  164.8144 C.3     1  UNL1        0.0196
     16 C         143.1043  141.3354  165.5736 C.3     1  UNL1        0.0017
     17 C         143.1042  142.7623  165.1108 C.3     1  UNL1        0.0001
     18 C         143.8807  143.1544  163.8888 C.3     1  UNL1        0.0000
     19 C         143.2466  144.4257  164.3704 C.3     1  UNL1        0.0000
     20 C         143.8806  145.1723  163.2342 C.3     1  UNL1        0.0000
     21 C         144.5147  143.9010  162.7526 C.3     1  UNL1        0.0000
     22 C         144.6572  142.1197  163.1296 C.3     1  UNL1        0.0001
     23 C         144.6573  140.6929  163.5924 C.3     1  UNL1        0.0017
     24 C         142.5205  137.8654  159.9282 C.1     1  UNL1        0.1401
     25 N         143.2339  137.7395  158.6146 N.1     1  UNL1       -0.1876
     26 O         138.1132  138.4516  162.6174 O.3     1  UNL1       -0.4600
     27 C         137.4529  139.4603  161.7249 C.3     1  UNL1        0.2071
     28 C         137.8159  140.9115  161.8361 C.3     1  UNL1        0.0466
     29 C         138.6031  141.5736  160.7443 C.3     1  UNL1        0.0211
     30 C         138.9660  143.0247  160.8556 C.3     1  UNL1        0.0723
     31 N         138.5417  143.8138  162.0586 N.3     1  UNL1       -0.2706
     32 C         137.7545  143.1518  163.1504 C.3     1  UNL1        0.0723
     33 C         137.3916  141.7007  163.0392 C.3     1  UNL1        0.0211
     34 C         138.9046  145.2650  162.1698 C.3     1  UNL1        0.1042
     35 C         140.3442  145.6718  162.2795 C.3     1  UNL1        0.1544
     36 O         141.2013  145.7357  161.0502 O.3     1  UNL1       -0.3805
     37 H         141.3120  144.8433  160.6865 H       1  UNL1        0.2105
@<TRIPOS>BOND
     1     7     8    1
     2     8     9   am
     3     9    10    2
     4     9     1    1
     5     1     2   ar
     6     2    12    1
     7    12    14    1
     8    14    15    1
     9    15    16    1
    10    16    17    1
    11    17    18    1
    12    18    19    1
    13    19    20    1
    14    20    21    1
    15    18    22    1
    16    22    23    1
    17     2     3   ar
    18     3     4   ar
    19     4    24    1
    20    24    25    3
    21     4     5   ar
    22     5     6   ar
    23     6    26    1
    24    26    27    1
    25    27    28    1
    26    28    29    1
    27    29    30    1
    28    30    31    1
    29    31    34    1
    30    34    35    1
    31    35    36    1
    32    31    32    1
    33    32    33    1
    34     6     1   ar
    35    33    28    1
    36    23    15    1
    37    21    18    1
    38     8    11    1
    39    12    13    1
    40    36    37    1
@<TRIPOS>MOLECULE
*****
 37 40 0 0 0
SMALL
GASTEIGER

@<TRIPOS>ATOM
      1 C         144.0069  141.8702  162.0150 C.ar    1  UNL1        0.1377
      2 C         143.4269  142.1767  160.6660 C.ar    1  UNL1        0.1397
      3 N         143.1399  141.0636  159.7025 N.ar    1  UNL1       -0.2027
      4 C         143.4330  139.6439  160.0878 C.ar    1  UNL1        0.2367
      5 N         144.0131  139.3373  161.4366 N.ar    1  UNL1       -0.1828
      6 C         144.3000  140.4504  162.4003 C.ar    1  UNL1        0.2339
      7 C         144.4641  143.8590  165.4187 C.3     1  UNL1        0.1109
      8 N         144.1772  142.7459  164.4551 N.am    1  UNL1       -0.2990
      9 C         144.2938  142.9833  162.9786 C.2     1  UNL1        0.2532
     10 O         144.6974  144.3339  162.4657 O.2     1  UNL1       -0.2699
     11 H         143.9123  141.8595  164.7918 H       1  UNL1        0.1498
     12 N         143.1338  143.5965  160.2807 N.pl3   1  UNL1       -0.3178
     13 H         143.8726  144.2349  160.1548 H       1  UNL1        0.1482
     14 C         141.7151  144.0435  160.0873 C.3     1  UNL1        0.0881
     15 C         140.7898  144.1329  161.2645 C.3     1  UNL1        0.0196
     16 C         139.4109  143.5484  161.1808 C.3     1  UNL1        0.0017
     17 C         138.4856  143.6378  162.3580 C.3     1  UNL1        0.0001
     18 C         138.9392  144.3117  163.6189 C.3     1  UNL1        0.0000
     19 C         137.5367  143.8612  163.9023 C.3     1  UNL1        0.0000
     20 C         137.6305  144.4381  165.2838 C.3     1  UNL1        0.0000
     21 C         139.0330  144.8887  165.0004 C.3     1  UNL1        0.0000
     22 C         140.3180  144.8962  163.7027 C.3     1  UNL1        0.0001
     23 C         141.2433  144.8068  162.5255 C.3     1  UNL1        0.0017
     24 C         143.1461  138.5307  159.1242 C.1     1  UNL1        0.1401
     25 N         142.8592  137.4175  158.1605 N.1     1  UNL1       -0.1876
     26 O         144.8800  140.1439  163.7492 O.3     1  UNL1       -0.4600
     27 C         144.2917  139.0475  164.5870 C.3     1  UNL1        0.2071
     28 C         142.8158  139.0168  164.8532 C.3     1  UNL1        0.0466
     29 C         141.9500  138.0053  164.1624 C.3     1  UNL1        0.0211
     30 C         140.4742  137.9746  164.4286 C.3     1  UNL1        0.0723
     31 N         139.8641  138.9554  165.3856 N.3     1  UNL1       -0.2706
     32 C         140.7299  139.9669  166.0764 C.3     1  UNL1        0.0723
     33 C         142.2057  139.9976  165.8102 C.3     1  UNL1        0.0211
     34 C         138.3882  138.9247  165.6518 C.3     1  UNL1        0.1042
     35 C         137.8817  138.6697  167.0404 C.3     1  UNL1        0.1544
     36 O         136.9482  137.5246  167.2997 O.3     1  UNL1       -0.3805
     37 H         136.1057  137.6853  166.8466 H       1  UNL1        0.2105
@<TRIPOS>BOND
     1     7     8    1
     2     8     9   am
     3     9    10    2
     4     9     1    1
     5     1     2   ar
     6     2    12    1
     7    12    14    1
     8    14    15    1
     9    15    16    1
    10    16    17    1
    11    17    18    1
    12    18    19    1
    13    19    20    1
    14    20    21    1
    15    18    22    1
    16    22    23    1
    17     2     3   ar
    18     3     4   ar
    19     4    24    1
    20    24    25    3
    21     4     5   ar
    22     5     6   ar
    23     6    26    1
    24    26    27    1
    25    27    28    1
    26    28    29    1
    27    29    30    1
    28    30    31    1
    29    31    34    1
    30    34    35    1
    31    35    36    1
    32    31    32    1
    33    32    33    1
    34     6     1   ar
    35    33    28    1
    36    23    15    1
    37    21    18    1
    38     8    11    1
    39    12    13    1
    40    36    37    1
@<TRIPOS>MOLECULE
*****
 37 40 0 0 0
SMALL
GASTEIGER

@<TRIPOS>ATOM
      1 C         141.8427  144.4295  162.4254 C.ar    1  UNL1        0.1377
      2 C         140.4686  145.0200  162.3100 C.ar    1  UNL1        0.1397
      3 N         139.9328  145.4160  160.9661 N.ar    1  UNL1       -0.2027
      4 C         140.7711  145.2216  159.7375 C.ar    1  UNL1        0.2367
      5 N         142.1451  144.6312  159.8528 N.ar    1  UNL1       -0.1828
      6 C         142.6810  144.2351  161.1967 C.ar    1  UNL1        0.2339
      7 C         144.3713  143.8154  165.4218 C.3     1  UNL1        0.1109
      8 N         143.8355  144.2114  164.0779 N.am    1  UNL1       -0.2990
      9 C         142.3784  144.0335  163.7692 C.2     1  UNL1        0.2532
     10 O         141.4571  143.4595  164.8045 O.2     1  UNL1       -0.2699
     11 H         144.4402  144.5881  163.3985 H       1  UNL1        0.1498
     12 N         139.6303  145.2144  163.5386 N.pl3   1  UNL1       -0.3178
     13 H         139.9100  145.8587  164.2285 H       1  UNL1        0.1482
     14 C         138.3659  144.4272  163.7161 C.3     1  UNL1        0.0881
     15 C         138.3890  142.9327  163.5905 C.3     1  UNL1        0.0196
     16 C         138.5682  142.0800  164.8114 C.3     1  UNL1        0.0017
     17 C         138.5913  140.5855  164.6858 C.3     1  UNL1        0.0001
     18 C         138.4351  139.9436  163.3391 C.3     1  UNL1        0.0000
     19 C         138.5884  138.8007  164.2985 C.3     1  UNL1        0.0000
     20 C         138.4678  137.8299  163.1614 C.3     1  UNL1        0.0000
     21 C         138.3145  138.9728  162.2019 C.3     1  UNL1        0.0000
     22 C         138.2559  140.7962  162.1181 C.3     1  UNL1        0.0001
     23 C         138.2328  142.2908  162.2438 C.3     1  UNL1        0.0017
     24 C         140.2354  145.6177  158.3936 C.1     1  UNL1        0.1401
     25 N         139.6996  146.0137  157.0497 N.1     1  UNL1       -0.1876
     26 O         144.0550  143.6447  161.3120 O.3     1  UNL1       -0.4600
     27 C         144.2617  142.1762  161.0863 C.3     1  UNL1        0.2071
     28 C         143.8965  141.1938  162.1594 C.3     1  UNL1        0.0466
     29 C         144.9303  140.7461  163.1498 C.3     1  UNL1        0.0211
     30 C         144.5651  139.7637  164.2228 C.3     1  UNL1        0.0723
     31 N         143.1661  139.2289  164.3055 N.3     1  UNL1       -0.2706
     32 C         142.1323  139.6766  163.3152 C.3     1  UNL1        0.0723
     33 C         142.4975  140.6590  162.2421 C.3     1  UNL1        0.0211
     34 C         142.8009  138.2465  165.3786 C.3     1  UNL1        0.1042
     35 C         143.6784  138.0935  166.5855 C.3     1  UNL1        0.1544
     36 O         143.2928  138.7448  167.8805 O.3     1  UNL1       -0.3805
     37 H         143.3230  139.7090  167.7790 H       1  UNL1        0.2105
@<TRIPOS>BOND
     1     7     8    1
     2     8     9   am
     3     9    10    2
     4     9     1    1
     5     1     2   ar
     6     2    12    1
     7    12    14    1
     8    14    15    1
     9    15    16    1
    10    16    17    1
    11    17    18    1
    12    18    19    1
    13    19    20    1
    14    20    21    1
    15    18    22    1
    16    22    23    1
    17     2     3   ar
    18     3     4   ar
    19     4    24    1
    20    24    25    3
    21     4     5   ar
    22     5     6   ar
    23     6    26    1
    24    26    27    1
    25    27    28    1
    26    28    29    1
    27    29    30    1
    28    30    31    1
    29    31    34    1
    30    34    35    1
    31    35    36    1
    32    31    32    1
    33    32    33    1
    34     6     1   ar
    35    33    28    1
    36    23    15    1
    37    21    18    1
    38     8    11    1
    39    12    13    1
    40    36    37    1
@<TRIPOS>MOLECULE
*****
 37 40 0 0 0
SMALL
GASTEIGER

@<TRIPOS>ATOM
      1 C         141.1798  144.2302  161.3243 C.ar    1  UNL1        0.1377
      2 C         141.8783  144.7676  162.5381 C.ar    1  UNL1        0.1397
      3 N         141.0971  145.0612  163.7845 N.ar    1  UNL1       -0.2027
      4 C         139.6174  144.8175  163.8171 C.ar    1  UNL1        0.2367
      5 N         138.9189  144.2802  162.6033 N.ar    1  UNL1       -0.1828
      6 C         139.7001  143.9865  161.3569 C.ar    1  UNL1        0.2339
      7 C         142.2799  144.1849  157.5114 C.3     1  UNL1        0.1109
      8 N         141.4987  144.4786  158.7578 N.am    1  UNL1       -0.2990
      9 C         141.9610  143.9366  160.0779 C.2     1  UNL1        0.2532
     10 O         143.2045  143.1009  160.1516 O.2     1  UNL1       -0.2699
     11 H         140.6826  145.0271  158.7095 H       1  UNL1        0.1498
     12 N         143.3580  145.0113  162.5055 N.pl3   1  UNL1       -0.3178
     13 H         143.7458  145.5939  161.8131 H       1  UNL1        0.1482
     14 C         144.2469  144.3674  163.5279 C.3     1  UNL1        0.0881
     15 C         143.9353  142.9891  164.0311 C.3     1  UNL1        0.0196
     16 C         143.4304  142.7979  165.4305 C.3     1  UNL1        0.0017
     17 C         143.1188  141.4196  165.9337 C.3     1  UNL1        0.0001
     18 C         143.3122  140.2325  165.0374 C.3     1  UNL1        0.0000
     19 C         142.8068  139.6644  166.3305 C.3     1  UNL1        0.0000
     20 C         142.8716  138.2832  165.7490 C.3     1  UNL1        0.0000
     21 C         143.3770  138.8512  164.4559 C.3     1  UNL1        0.0000
     22 C         143.8171  140.4237  163.6380 C.3     1  UNL1        0.0001
     23 C         144.1287  141.8020  163.1348 C.3     1  UNL1        0.0017
     24 C         138.8362  145.1112  165.0635 C.1     1  UNL1        0.1401
     25 N         138.0550  145.4049  166.3099 N.1     1  UNL1       -0.1876
     26 O         139.0016  143.4492  160.1431 O.3     1  UNL1       -0.4600
     27 C         138.8748  141.9677  159.9451 C.3     1  UNL1        0.2071
     28 C         138.8740  141.0498  161.1315 C.3     1  UNL1        0.0466
     29 C         137.6757  140.9887  162.0317 C.3     1  UNL1        0.0211
     30 C         137.6750  140.0709  163.2181 C.3     1  UNL1        0.0723
     31 N         138.8725  139.2140  163.5042 N.3     1  UNL1       -0.2706
     32 C         140.0707  139.2751  162.6039 C.3     1  UNL1        0.0723
     33 C         140.0715  140.1929  161.4176 C.3     1  UNL1        0.0211
     34 C         138.8717  138.2961  164.6906 C.3     1  UNL1        0.1042
     35 C         138.5291  138.8284  166.0504 C.3     1  UNL1        0.1544
     36 O         137.3840  138.2394  166.8197 O.3     1  UNL1       -0.3805
     37 H         136.5526  138.4284  166.3572 H       1  UNL1        0.2105
@<TRIPOS>BOND
     1     7     8    1
     2     8     9   am
     3     9    10    2
     4     9     1    1
     5     1     2   ar
     6     2    12    1
     7    12    14    1
     8    14    15    1
     9    15    16    1
    10    16    17    1
    11    17    18    1
    12    18    19    1
    13    19    20    1
    14    20    21    1
    15    18    22    1
    16    22    23    1
    17     2     3   ar
    18     3     4   ar
    19     4    24    1
    20    24    25    3
    21     4     5   ar
    22     5     6   ar
    23     6    26    1
    24    26    27    1
    25    27    28    1
    26    28    29    1
    27    29    30    1
    28    30    31    1
    29    31    34    1
    30    34    35    1
    31    35    36    1
    32    31    32    1
    33    32    33    1
    34     6     1   ar
    35    33    28    1
    36    23    15    1
    37    21    18    1
    38     8    11    1
    39    12    13    1
    40    36    37    1
