@<TRIPOS>MOLECULE
*****
 34 35 0 0 0
SMALL
GASTEIGER

@<TRIPOS>ATOM
      1 C         138.1685  140.5794  163.9823 C.ar    1  UNL1        0.0730
      2 C         137.9631  142.0640  163.9212 C.ar    1  UNL1        0.0322
      3 C         137.9002  142.7584  162.5931 C.ar    1  UNL1        0.0654
      4 C         138.0427  141.9683  161.3261 C.ar    1  UNL1        0.1133
      5 N         138.2481  140.4836  161.3871 N.ar    1  UNL1       -0.2367
      6 C         138.3110  139.7892  162.7152 C.ar    1  UNL1        0.1476
      7 C         138.5164  138.3046  162.7763 C.2     1  UNL1        0.2617
      8 N         137.7380  137.4017  161.8658 N.am    1  UNL1       -0.3240
      9 O         139.5002  137.7229  163.7478 O.2     1  UNL1       -0.2687
     10 H         137.0924  137.7835  161.2282 H       1  UNL1        0.1453
     11 H         137.8729  136.4273  161.9059 H       1  UNL1        0.1453
     12 N         138.2314  139.8849  165.3103 N.pl3   1  UNL1       -0.2966
     13 H         137.4951  139.2957  165.5931 H       1  UNL1        0.1537
     14 C         140.3107  139.9548  170.0718 C.3     1  UNL1        0.0312
     15 C         140.4558  140.1232  168.5884 C.ar    1  UNL1       -0.0179
     16 C         141.7855  140.4947  168.0022 C.ar    1  UNL1        0.0106
     17 C         141.9306  140.6631  166.5188 C.ar    1  UNL1        0.0605
     18 C         143.2605  141.0347  165.9326 C.3     1  UNL1        0.0521
     19 N         140.7460  140.4598  165.6215 N.ar    1  UNL1       -0.2349
     20 C         139.4162  140.0882  166.2076 C.ar    1  UNL1        0.1315
     21 C         139.2711  139.9199  167.6911 C.ar    1  UNL1        0.0301
     22 N         137.6948  144.2431  162.5320 N.pl3   1  UNL1       -0.3303
     23 H         136.9768  144.6181  161.9725 H       1  UNL1        0.1469
     24 C         138.5835  145.1563  163.3234 C.3     1  UNL1        0.1028
     25 C         140.0109  145.3582  162.9092 C.3     1  UNL1        0.0723
     26 N         140.3316  146.1953  161.7065 N.3     1  UNL1       -0.3208
     27 H         139.4663  146.5455  161.2954 H       1  UNL1        0.1189
     28 H         140.8289  145.6279  161.0200 H       1  UNL1        0.1189
     29 C         141.1177  144.7229  163.6975 C.3     1  UNL1        0.0425
     30 C         142.5311  145.1922  163.5185 C.3     1  UNL1        0.1523
     31 S         143.5602  144.2684  162.9375 S.O2    1  UNL1       -0.0082
     32 C         144.5892  143.3446  162.3565 C.3     1  UNL1        0.1760
     33 O         142.9767  144.4775  161.5716 O.2     1  UNL1       -0.1729
     34 O         144.1436  144.0593  164.3034 O.2     1  UNL1       -0.1729
@<TRIPOS>BOND
     1    14    15    1
     2    15    16   ar
     3    16    17   ar
     4    17    18    1
     5    17    19   ar
     6    19    20   ar
     7    20    12    1
     8    12     1    1
     9     1     2   ar
    10     2     3   ar
    11     3    22    1
    12    22    24    1
    13    24    25    1
    14    25    26    1
    15    25    29    1
    16    29    30    1
    17    30    31    1
    18    31    32    1
    19    31    33    2
    20    31    34    2
    21     3     4   ar
    22     4     5   ar
    23     5     6   ar
    24     6     7    1
    25     7     8   am
    26     7     9    2
    27    20    21   ar
    28    21    15   ar
    29     6     1   ar
    30    12    13    1
    31    22    23    1
    32    26    27    1
    33    26    28    1
    34     8    10    1
    35     8    11    1
@<TRIPOS>MOLECULE
*****
 34 35 0 0 0
SMALL
GASTEIGER

@<TRIPOS>ATOM
      1 C         141.5563  140.1204  167.7071 C.ar    1  UNL1        0.0730
      2 C         140.5262  139.8856  166.6423 C.ar    1  UNL1        0.0322
      3 C         139.0947  139.6489  167.0228 C.ar    1  UNL1        0.0654
      4 C         138.6933  139.6470  168.4681 C.ar    1  UNL1        0.1133
      5 N         139.7234  139.8818  169.5329 N.ar    1  UNL1       -0.2367
      6 C         141.1549  140.1185  169.1524 C.ar    1  UNL1        0.1476
      7 C         142.1850  140.3532  170.2172 C.2     1  UNL1        0.2617
      8 N         142.0751  141.5487  171.1165 N.am    1  UNL1       -0.3240
      9 O         143.3250  139.3924  170.3827 O.2     1  UNL1       -0.2687
     10 H         141.3269  142.1793  171.0078 H       1  UNL1        0.1453
     11 H         142.7512  141.7028  171.8153 H       1  UNL1        0.1453
     12 N         142.9878  140.3571  167.3266 N.pl3   1  UNL1       -0.2966
     13 H         143.7095  140.1156  167.9511 H       1  UNL1        0.1537
     14 C         143.6675  144.5479  164.3308 C.3     1  UNL1        0.0312
     15 C         143.6595  143.0572  164.4967 C.ar    1  UNL1       -0.0179
     16 C         143.9834  142.1710  163.3306 C.ar    1  UNL1        0.0106
     17 C         143.9755  140.6803  163.4965 C.ar    1  UNL1        0.0605
     18 C         144.2994  139.7941  162.3303 C.3     1  UNL1        0.0521
     19 N         143.6436  140.0756  164.8284 N.ar    1  UNL1       -0.2349
     20 C         143.3197  140.9617  165.9945 C.ar    1  UNL1        0.1315
     21 C         143.3276  142.4525  165.8286 C.ar    1  UNL1        0.0301
     22 N         138.0646  139.4142  165.9580 N.pl3   1  UNL1       -0.3303
     23 H         137.2293  138.9412  166.1769 H       1  UNL1        0.1469
     24 C         138.3072  139.9000  164.5597 C.3     1  UNL1        0.1028
     25 C         137.8649  141.2754  164.1563 C.3     1  UNL1        0.0723
     26 N         136.8174  141.4456  163.0962 N.3     1  UNL1       -0.3208
     27 H         136.5196  140.5290  162.7622 H       1  UNL1        0.1189
     28 H         137.2039  141.9815  162.3192 H       1  UNL1        0.1189
     29 C         138.4702  142.4805  164.8130 C.3     1  UNL1        0.0425
     30 C         138.0227  143.8557  164.4148 C.3     1  UNL1        0.1523
     31 S         138.8243  144.6479  163.4247 S.O2    1  UNL1       -0.0082
     32 C         139.6258  145.4401  162.4348 C.3     1  UNL1        0.1760
     33 O         137.7648  144.4231  162.3870 O.2     1  UNL1       -0.1729
     34 O         139.8837  144.8728  164.4625 O.2     1  UNL1       -0.1729
@<TRIPOS>BOND
     1    14    15    1
     2    15    16   ar
     3    16    17   ar
     4    17    18    1
     5    17    19   ar
     6    19    20   ar
     7    20    12    1
     8    12     1    1
     9     1     2   ar
    10     2     3   ar
    11     3    22    1
    12    22    24    1
    13    24    25    1
    14    25    26    1
    15    25    29    1
    16    29    30    1
    17    30    31    1
    18    31    32    1
    19    31    33    2
    20    31    34    2
    21     3     4   ar
    22     4     5   ar
    23     5     6   ar
    24     6     7    1
    25     7     8   am
    26     7     9    2
    27    20    21   ar
    28    21    15   ar
    29     6     1   ar
    30    12    13    1
    31    22    23    1
    32    26    27    1
    33    26    28    1
    34     8    10    1
    35     8    11    1
@<TRIPOS>MOLECULE
*****
 34 35 0 0 0
SMALL
GASTEIGER

@<TRIPOS>ATOM
      1 C         140.4814  140.1046  167.0580 C.ar    1  UNL1        0.0730
      2 C         140.2044  139.5050  165.7113 C.ar    1  UNL1        0.0322
      3 C         138.9561  138.7031  165.4897 C.ar    1  UNL1        0.0654
      4 C         137.9850  138.5010  166.6148 C.ar    1  UNL1        0.1133
      5 N         138.2620  139.1006  167.9616 N.ar    1  UNL1       -0.2367
      6 C         139.5102  139.9024  168.1832 C.ar    1  UNL1        0.1476
      7 C         139.7872  140.5021  169.5299 C.2     1  UNL1        0.2617
      8 N         140.0029  139.6115  170.7174 N.am    1  UNL1       -0.3240
      9 O         139.8485  141.9924  169.6890 O.2     1  UNL1       -0.2687
     10 H         139.9627  138.6334  170.6129 H       1  UNL1        0.1453
     11 H         140.1848  140.0051  171.6013 H       1  UNL1        0.1453
     12 N         141.7296  140.9064  167.2796 N.pl3   1  UNL1       -0.2966
     13 H         142.1517  140.9245  168.1688 H       1  UNL1        0.1537
     14 C         145.5624  141.5926  163.8388 C.3     1  UNL1        0.0312
     15 C         144.2511  142.0238  164.4259 C.ar    1  UNL1       -0.0179
     16 C         143.5450  143.2292  163.8798 C.ar    1  UNL1        0.0106
     17 C         142.2337  143.6604  164.4669 C.ar    1  UNL1        0.0605
     18 C         141.5276  144.8659  163.9207 C.3     1  UNL1        0.0521
     19 N         141.6286  142.8862  165.6001 N.ar    1  UNL1       -0.2349
     20 C         142.3347  141.6807  166.1463 C.ar    1  UNL1        0.1315
     21 C         143.6460  141.2496  165.5592 C.ar    1  UNL1        0.0301
     22 N         138.6791  138.1035  164.1430 N.pl3   1  UNL1       -0.3303
     23 H         138.1608  137.2694  164.0727 H       1  UNL1        0.1469
     24 C         139.1918  138.7747  162.9033 C.3     1  UNL1        0.1028
     25 C         138.3978  139.8744  162.2629 C.3     1  UNL1        0.0723
     26 N         137.1875  139.5446  161.4403 N.3     1  UNL1       -0.3208
     27 H         137.0531  138.5336  161.4235 H       1  UNL1        0.1189
     28 H         137.3202  139.8858  160.4882 H       1  UNL1        0.1189
     29 C         138.8140  141.3039  162.4450 C.3     1  UNL1        0.0425
     30 C         137.7741  142.3751  162.5906 C.3     1  UNL1        0.1523
     31 S         137.8841  143.3817  163.6974 S.O2    1  UNL1       -0.0082
     32 C         137.9941  144.3882  164.8040 C.3     1  UNL1        0.1760
     33 O         137.9873  142.2696  164.6986 O.2     1  UNL1       -0.1729
     34 O         137.7808  144.4938  162.6961 O.2     1  UNL1       -0.1729
@<TRIPOS>BOND
     1    14    15    1
     2    15    16   ar
     3    16    17   ar
     4    17    18    1
     5    17    19   ar
     6    19    20   ar
     7    20    12    1
     8    12     1    1
     9     1     2   ar
    10     2     3   ar
    11     3    22    1
    12    22    24    1
    13    24    25    1
    14    25    26    1
    15    25    29    1
    16    29    30    1
    17    30    31    1
    18    31    32    1
    19    31    33    2
    20    31    34    2
    21     3     4   ar
    22     4     5   ar
    23     5     6   ar
    24     6     7    1
    25     7     8   am
    26     7     9    2
    27    20    21   ar
    28    21    15   ar
    29     6     1   ar
    30    12    13    1
    31    22    23    1
    32    26    27    1
    33    26    28    1
    34     8    10    1
    35     8    11    1
@<TRIPOS>MOLECULE
*****
 34 35 0 0 0
SMALL
GASTEIGER

@<TRIPOS>ATOM
      1 C         142.2956  141.1144  162.9703 C.ar    1  UNL1        0.0730
      2 C         141.8022  142.4987  162.6702 C.ar    1  UNL1        0.0322
      3 C         142.7639  143.5549  162.2122 C.ar    1  UNL1        0.0654
      4 C         144.2190  143.2267  162.0545 C.ar    1  UNL1        0.1133
      5 N         144.7124  141.8423  162.3546 N.ar    1  UNL1       -0.2367
      6 C         143.7508  140.7862  162.8125 C.ar    1  UNL1        0.1476
      7 C         144.2442  139.4018  163.1127 C.2     1  UNL1        0.2617
      8 N         145.2857  139.1899  164.1711 N.am    1  UNL1       -0.3240
      9 O         143.6960  138.2294  162.3544 O.2     1  UNL1       -0.2687
     10 H         145.6455  139.9594  164.6688 H       1  UNL1        0.1453
     11 H         145.6096  138.2813  164.3681 H       1  UNL1        0.1453
     12 N         141.3339  140.0582  163.4282 N.pl3   1  UNL1       -0.2966
     13 H         141.0871  139.3216  162.8234 H       1  UNL1        0.1537
     14 C         137.7625  138.5289  166.8787 C.3     1  UNL1        0.0312
     15 C         138.9625  139.3596  166.5328 C.ar    1  UNL1       -0.0179
     16 C         139.5770  140.2565  167.5663 C.ar    1  UNL1        0.0106
     17 C         140.7771  141.0872  167.2205 C.ar    1  UNL1        0.0605
     18 C         141.3915  141.9841  168.2540 C.3     1  UNL1        0.0521
     19 N         141.3627  141.0211  165.8411 N.ar    1  UNL1       -0.2349
     20 C         140.7483  140.1243  164.8077 C.ar    1  UNL1        0.1315
     21 C         139.5482  139.2936  165.1535 C.ar    1  UNL1        0.0301
     22 N         142.2705  144.9392  161.9121 N.pl3   1  UNL1       -0.3303
     23 H         142.5753  145.4052  161.1002 H       1  UNL1        0.1469
     24 C         141.3126  145.6136  162.8490 C.3     1  UNL1        0.1028
     25 C         139.8341  145.4802  162.6342 C.3     1  UNL1        0.0723
     26 N         139.2120  145.9843  161.3658 N.3     1  UNL1       -0.3208
     27 H         139.9352  146.3840  160.7678 H       1  UNL1        0.1189
     28 H         138.5202  146.7003  161.5876 H       1  UNL1        0.1189
     29 C         138.9777  144.8426  163.6878 C.3     1  UNL1        0.0425
     30 C         137.7104  144.1399  163.3002 C.3     1  UNL1        0.1523
     31 S         137.7465  142.6947  162.8995 S.O2    1  UNL1       -0.0082
     32 C         137.7827  141.2497  162.4990 C.3     1  UNL1        0.1760
     33 O         137.6895  143.0938  161.4547 O.2     1  UNL1       -0.1729
     34 O         137.8036  142.2957  164.3443 O.2     1  UNL1       -0.1729
@<TRIPOS>BOND
     1    14    15    1
     2    15    16   ar
     3    16    17   ar
     4    17    18    1
     5    17    19   ar
     6    19    20   ar
     7    20    12    1
     8    12     1    1
     9     1     2   ar
    10     2     3   ar
    11     3    22    1
    12    22    24    1
    13    24    25    1
    14    25    26    1
    15    25    29    1
    16    29    30    1
    17    30    31    1
    18    31    32    1
    19    31    33    2
    20    31    34    2
    21     3     4   ar
    22     4     5   ar
    23     5     6   ar
    24     6     7    1
    25     7     8   am
    26     7     9    2
    27    20    21   ar
    28    21    15   ar
    29     6     1   ar
    30    12    13    1
    31    22    23    1
    32    26    27    1
    33    26    28    1
    34     8    10    1
    35     8    11    1
@<TRIPOS>MOLECULE
*****
 34 35 0 0 0
SMALL
GASTEIGER

@<TRIPOS>ATOM
      1 C         139.2962  141.0580  165.3897 C.ar    1  UNL1        0.0730
      2 C         139.7396  140.9553  166.8189 C.ar    1  UNL1        0.0322
      3 C         139.2020  139.8623  167.6943 C.ar    1  UNL1        0.0654
      4 C         138.2209  138.8720  167.1404 C.ar    1  UNL1        0.1133
      5 N         137.7774  138.9748  165.7112 N.ar    1  UNL1       -0.2367
      6 C         138.3150  140.0677  164.8358 C.ar    1  UNL1        0.1476
      7 C         137.8715  140.1704  163.4065 C.2     1  UNL1        0.2617
      8 N         136.8520  141.1965  163.0095 N.am    1  UNL1       -0.3240
      9 O         138.4477  139.2470  162.3743 O.2     1  UNL1       -0.2687
     10 H         136.4739  141.8026  163.6870 H       1  UNL1        0.1453
     11 H         136.5610  141.2639  162.0714 H       1  UNL1        0.1453
     12 N         139.8338  142.1510  164.5143 N.pl3   1  UNL1       -0.2966
     13 H         139.2143  142.7453  164.0324 H       1  UNL1        0.1537
     14 C         144.5981  140.1358  164.0241 C.3     1  UNL1        0.0312
     15 C         143.6975  141.3308  164.1280 C.ar    1  UNL1       -0.0179
     16 C         144.2784  142.7133  164.0906 C.ar    1  UNL1        0.0106
     17 C         143.3777  143.9083  164.1945 C.ar    1  UNL1        0.0605
     18 C         143.9587  145.2908  164.1571 C.3     1  UNL1        0.0521
     19 N         141.8962  143.7209  164.3357 N.ar    1  UNL1       -0.2349
     20 C         141.3154  142.3385  164.3730 C.ar    1  UNL1        0.1315
     21 C         142.2160  141.1434  164.2692 C.ar    1  UNL1        0.0301
     22 N         139.6454  139.7596  169.1236 N.pl3   1  UNL1       -0.3303
     23 H         139.9563  138.8968  169.4817 H       1  UNL1        0.1469
     24 C         139.6152  140.9714  170.0071 C.3     1  UNL1        0.1028
     25 C         140.7181  141.2060  170.9964 C.3     1  UNL1        0.0723
     26 N         140.5764  142.2761  172.0380 N.3     1  UNL1       -0.3208
     27 H         139.6753  142.7410  171.9273 H       1  UNL1        0.1189
     28 H         141.3267  142.9583  171.9289 H       1  UNL1        0.1189
     29 C         141.9628  140.3705  170.9441 C.3     1  UNL1        0.0425
     30 C         143.2092  140.9201  170.3162 C.3     1  UNL1        0.1523
     31 S         143.1331  141.6366  169.0005 S.O2    1  UNL1       -0.0082
     32 C         143.0571  142.3530  167.6849 C.3     1  UNL1        0.1760
     33 O         142.7702  140.3497  168.3207 O.2     1  UNL1       -0.1729
     34 O         143.4961  142.9234  169.6803 O.2     1  UNL1       -0.1729
@<TRIPOS>BOND
     1    14    15    1
     2    15    16   ar
     3    16    17   ar
     4    17    18    1
     5    17    19   ar
     6    19    20   ar
     7    20    12    1
     8    12     1    1
     9     1     2   ar
    10     2     3   ar
    11     3    22    1
    12    22    24    1
    13    24    25    1
    14    25    26    1
    15    25    29    1
    16    29    30    1
    17    30    31    1
    18    31    32    1
    19    31    33    2
    20    31    34    2
    21     3     4   ar
    22     4     5   ar
    23     5     6   ar
    24     6     7    1
    25     7     8   am
    26     7     9    2
    27    20    21   ar
    28    21    15   ar
    29     6     1   ar
    30    12    13    1
    31    22    23    1
    32    26    27    1
    33    26    28    1
    34     8    10    1
    35     8    11    1
@<TRIPOS>MOLECULE
*****
 34 35 0 0 0
SMALL
GASTEIGER

@<TRIPOS>ATOM
      1 C         141.4527  143.7752  164.1640 C.ar    1  UNL1        0.0730
      2 C         142.7276  143.1611  164.6617 C.ar    1  UNL1        0.0322
      3 C         143.9771  143.2549  163.8371 C.ar    1  UNL1        0.0654
      4 C         143.9518  143.9628  162.5149 C.ar    1  UNL1        0.1133
      5 N         142.6770  144.5769  162.0173 N.ar    1  UNL1       -0.2367
      6 C         141.4275  144.4831  162.8418 C.ar    1  UNL1        0.1476
      7 C         140.1527  145.0973  162.3441 C.2     1  UNL1        0.2617
      8 N         140.0555  146.5835  162.1664 N.am    1  UNL1       -0.3240
      9 O         138.9749  144.2251  162.0242 O.2     1  UNL1       -0.2687
     10 H         140.8285  147.1559  162.3763 H       1  UNL1        0.1453
     11 H         139.2188  146.9865  161.8397 H       1  UNL1        0.1453
     12 N         140.2032  143.6814  164.9885 N.pl3   1  UNL1       -0.2966
     13 H         139.5232  144.3912  164.9342 H       1  UNL1        0.1537
     14 C         140.6692  141.4628  169.6641 C.3     1  UNL1        0.0312
     15 C         140.2227  141.3968  168.2336 C.ar    1  UNL1       -0.0179
     16 C         139.5628  140.1556  167.7103 C.ar    1  UNL1        0.0106
     17 C         139.1164  140.0896  166.2798 C.ar    1  UNL1        0.0605
     18 C         138.4565  138.8482  165.7566 C.3     1  UNL1        0.0521
     19 N         139.3299  141.2648  165.3726 N.ar    1  UNL1       -0.2349
     20 C         139.9897  142.5061  165.8958 C.ar    1  UNL1        0.1315
     21 C         140.4362  142.5720  167.3263 C.ar    1  UNL1        0.0301
     22 N         145.2520  142.6407  164.3348 N.pl3   1  UNL1       -0.3303
     23 H         145.7565  143.0740  165.0607 H       1  UNL1        0.1469
     24 C         145.7580  141.3664  163.7264 C.3     1  UNL1        0.1028
     25 C         144.7946  140.2787  163.3540 C.3     1  UNL1        0.0723
     26 N         144.6021  139.9082  161.9133 N.3     1  UNL1       -0.3208
     27 H         145.2005  140.4923  161.3291 H       1  UNL1        0.1189
     28 H         143.6267  140.0528  161.6524 H       1  UNL1        0.1189
     29 C         144.0236  139.5616  164.4223 C.3     1  UNL1        0.0425
     30 C         142.5238  139.5740  164.4013 C.3     1  UNL1        0.1523
     31 S         141.7716  138.3952  163.8583 S.O2    1  UNL1       -0.0082
     32 C         141.0194  137.2165  163.3155 C.3     1  UNL1        0.1760
     33 O         141.6293  139.0938  162.5386 O.2     1  UNL1       -0.1729
     34 O         141.9138  137.6966  165.1781 O.2     1  UNL1       -0.1729
@<TRIPOS>BOND
     1    14    15    1
     2    15    16   ar
     3    16    17   ar
     4    17    18    1
     5    17    19   ar
     6    19    20   ar
     7    20    12    1
     8    12     1    1
     9     1     2   ar
    10     2     3   ar
    11     3    22    1
    12    22    24    1
    13    24    25    1
    14    25    26    1
    15    25    29    1
    16    29    30    1
    17    30    31    1
    18    31    32    1
    19    31    33    2
    20    31    34    2
    21     3     4   ar
    22     4     5   ar
    23     5     6   ar
    24     6     7    1
    25     7     8   am
    26     7     9    2
    27    20    21   ar
    28    21    15   ar
    29     6     1   ar
    30    12    13    1
    31    22    23    1
    32    26    27    1
    33    26    28    1
    34     8    10    1
    35     8    11    1
@<TRIPOS>MOLECULE
*****
 34 35 0 0 0
SMALL
GASTEIGER

@<TRIPOS>ATOM
      1 C         140.2877  142.5489  162.9565 C.ar    1  UNL1        0.0730
      2 C         141.5596  142.0214  162.3614 C.ar    1  UNL1        0.0322
      3 C         142.6291  142.9729  161.9133 C.ar    1  UNL1        0.0654
      4 C         142.4267  144.4519  162.0602 C.ar    1  UNL1        0.1133
      5 N         141.1548  144.9794  162.6552 N.ar    1  UNL1       -0.2367
      6 C         140.0854  144.0279  163.1034 C.ar    1  UNL1        0.1476
      7 C         138.8135  144.5554  163.6984 C.2     1  UNL1        0.2617
      8 N         138.8128  145.1178  165.0890 N.am    1  UNL1       -0.3240
      9 O         137.5423  144.5205  162.9029 O.2     1  UNL1       -0.2687
     10 H         139.6471  145.1407  165.6111 H       1  UNL1        0.1453
     11 H         137.9780  145.4640  165.4795 H       1  UNL1        0.1453
     12 N         139.2183  141.5974  163.4047 N.pl3   1  UNL1       -0.2966
     13 H         138.4930  141.3462  162.7881 H       1  UNL1        0.1537
     14 C         137.6319  138.0526  166.8570 C.3     1  UNL1        0.0312
     15 C         138.4606  139.2562  166.5183 C.ar    1  UNL1       -0.0179
     16 C         139.3249  139.8909  167.5672 C.ar    1  UNL1        0.0106
     17 C         140.1536  141.0945  167.2286 C.ar    1  UNL1        0.0605
     18 C         141.0179  141.7293  168.2775 C.3     1  UNL1        0.0521
     19 N         140.1181  141.6633  165.8411 N.ar    1  UNL1       -0.2349
     20 C         139.2538  141.0286  164.7922 C.ar    1  UNL1        0.1315
     21 C         138.4251  139.8250  165.1308 C.ar    1  UNL1        0.0301
     22 N         143.9010  142.4454  161.3182 N.pl3   1  UNL1       -0.3303
     23 H         144.4136  142.9970  160.6840 H       1  UNL1        0.1469
     24 C         144.3919  141.0775  161.6896 C.3     1  UNL1        0.1028
     25 C         145.1049  140.8645  162.9919 C.3     1  UNL1        0.0723
     26 N         146.2429  141.7617  163.3795 N.3     1  UNL1       -0.3208
     27 H         146.3942  142.4548  162.6466 H       1  UNL1        0.1189
     28 H         147.0888  141.2048  163.5007 H       1  UNL1        0.1189
     29 C         144.6800  139.7543  163.9068 C.3     1  UNL1        0.0425
     30 C         143.4328  139.8952  164.7281 C.3     1  UNL1        0.1523
     31 S         142.4473  138.7662  164.7950 S.O2    1  UNL1       -0.0082
     32 C         141.4619  137.6373  164.8618 C.3     1  UNL1        0.1760
     33 O         142.3546  138.7584  163.2979 O.2     1  UNL1       -0.1729
     34 O         142.5400  138.7740  166.2920 O.2     1  UNL1       -0.1729
@<TRIPOS>BOND
     1    14    15    1
     2    15    16   ar
     3    16    17   ar
     4    17    18    1
     5    17    19   ar
     6    19    20   ar
     7    20    12    1
     8    12     1    1
     9     1     2   ar
    10     2     3   ar
    11     3    22    1
    12    22    24    1
    13    24    25    1
    14    25    26    1
    15    25    29    1
    16    29    30    1
    17    30    31    1
    18    31    32    1
    19    31    33    2
    20    31    34    2
    21     3     4   ar
    22     4     5   ar
    23     5     6   ar
    24     6     7    1
    25     7     8   am
    26     7     9    2
    27    20    21   ar
    28    21    15   ar
    29     6     1   ar
    30    12    13    1
    31    22    23    1
    32    26    27    1
    33    26    28    1
    34     8    10    1
    35     8    11    1
@<TRIPOS>MOLECULE
*****
 34 35 0 0 0
SMALL
GASTEIGER

@<TRIPOS>ATOM
      1 C         142.6155  142.5524  164.2872 C.ar    1  UNL1        0.0730
      2 C         141.3290  143.1736  164.7444 C.ar    1  UNL1        0.0322
      3 C         140.9532  144.5492  164.2787 C.ar    1  UNL1        0.0654
      4 C         141.8640  145.3035  163.3560 C.ar    1  UNL1        0.1133
      5 N         143.1506  144.6822  162.8988 N.ar    1  UNL1       -0.2367
      6 C         143.5263  143.3068  163.3645 C.ar    1  UNL1        0.1476
      7 C         144.8128  142.6856  162.9073 C.2     1  UNL1        0.2617
      8 N         145.2246  142.7862  161.4685 N.am    1  UNL1       -0.3240
      9 O         145.6875  141.9637  163.8891 O.2     1  UNL1       -0.2687
     10 H         144.6505  143.2600  160.8242 H       1  UNL1        0.1453
     11 H         146.0690  142.3785  161.1685 H       1  UNL1        0.1453
     12 N         142.9912  141.1769  164.7528 N.pl3   1  UNL1       -0.2966
     13 H         143.6652  141.0642  165.4615 H       1  UNL1        0.1537
     14 C         139.3467  137.4755  164.8810 C.3     1  UNL1        0.0312
     15 C         140.5177  138.1225  164.2028 C.ar    1  UNL1       -0.0179
     16 C         141.0376  137.5660  162.9106 C.ar    1  UNL1        0.0106
     17 C         142.2086  138.2130  162.2324 C.ar    1  UNL1        0.0605
     18 C         142.7285  137.6564  160.9401 C.3     1  UNL1        0.0521
     19 N         142.8598  139.4167  162.8465 N.ar    1  UNL1       -0.2349
     20 C         142.3400  139.9732  164.1387 C.ar    1  UNL1        0.1315
     21 C         141.1689  139.3262  164.8169 C.ar    1  UNL1        0.0301
     22 N         139.6667  145.1704  164.7358 N.pl3   1  UNL1       -0.3303
     23 H         139.6325  146.1308  164.9496 H       1  UNL1        0.1469
     24 C         138.4323  144.3283  164.8672 C.3     1  UNL1        0.1028
     25 C         137.8623  143.6399  163.6625 C.3     1  UNL1        0.0723
     26 N         137.5218  144.4339  162.4361 N.3     1  UNL1       -0.3208
     27 H         137.7406  145.4172  162.5961 H       1  UNL1        0.1189
     28 H         136.5272  144.3356  162.2328 H       1  UNL1        0.1189
     29 C         137.6328  142.1578  163.6841 C.3     1  UNL1        0.0425
     30 C         138.4981  141.2527  162.8583 C.3     1  UNL1        0.1523
     31 S         137.9344  140.5815  161.6410 S.O2    1  UNL1       -0.0082
     32 C         137.3707  139.9103  160.4237 C.3     1  UNL1        0.1760
     33 O         138.2000  141.8188  160.8357 O.2     1  UNL1       -0.1729
     34 O         137.6689  139.3442  162.4462 O.2     1  UNL1       -0.1729
@<TRIPOS>BOND
     1    14    15    1
     2    15    16   ar
     3    16    17   ar
     4    17    18    1
     5    17    19   ar
     6    19    20   ar
     7    20    12    1
     8    12     1    1
     9     1     2   ar
    10     2     3   ar
    11     3    22    1
    12    22    24    1
    13    24    25    1
    14    25    26    1
    15    25    29    1
    16    29    30    1
    17    30    31    1
    18    31    32    1
    19    31    33    2
    20    31    34    2
    21     3     4   ar
    22     4     5   ar
    23     5     6   ar
    24     6     7    1
    25     7     8   am
    26     7     9    2
    27    20    21   ar
    28    21    15   ar
    29     6     1   ar
    30    12    13    1
    31    22    23    1
    32    26    27    1
    33    26    28    1
    34     8    10    1
    35     8    11    1
@<TRIPOS>MOLECULE
*****
 34 35 0 0 0
SMALL
GASTEIGER

@<TRIPOS>ATOM
      1 C         142.9594  141.5453  163.9814 C.ar    1  UNL1        0.0730
      2 C         142.3975  142.9217  163.7820 C.ar    1  UNL1        0.0322
      3 C         142.9173  143.7910  162.6755 C.ar    1  UNL1        0.0654
      4 C         143.9990  143.2838  161.7684 C.ar    1  UNL1        0.1133
      5 N         144.5608  141.9073  161.9678 N.ar    1  UNL1       -0.2367
      6 C         144.0411  141.0381  163.0743 C.ar    1  UNL1        0.1476
      7 C         144.6030  139.6617  163.2737 C.2     1  UNL1        0.2617
      8 N         144.5493  138.6608  162.1578 N.am    1  UNL1       -0.3240
      9 O         145.2185  139.2862  164.5891 O.2     1  UNL1       -0.2687
     10 H         144.1453  138.9073  161.2945 H       1  UNL1        0.1453
     11 H         144.9181  137.7574  162.2887 H       1  UNL1        0.1453
     12 N         142.4396  140.6761  165.0878 N.pl3   1  UNL1       -0.2966
     13 H         142.9189  140.6334  165.9467 H       1  UNL1        0.1537
     14 C         137.9995  138.7173  166.9448 C.3     1  UNL1        0.0312
     15 C         138.9695  138.8926  165.8142 C.ar    1  UNL1       -0.0179
     16 C         138.6896  138.2637  164.4815 C.ar    1  UNL1        0.0106
     17 C         139.6597  138.4390  163.3509 C.ar    1  UNL1        0.0605
     18 C         139.3797  137.8101  162.0181 C.3     1  UNL1        0.0521
     19 N         140.9097  139.2431  163.5530 N.ar    1  UNL1       -0.2349
     20 C         141.1896  139.8719  164.8857 C.ar    1  UNL1        0.1315
     21 C         140.2195  139.6967  166.0163 C.ar    1  UNL1        0.0301
     22 N         142.3554  145.1674  162.4761 N.pl3   1  UNL1       -0.3303
     23 H         142.7863  145.7883  161.8452 H       1  UNL1        0.1469
     24 C         141.1371  145.5977  163.2380 C.3     1  UNL1        0.1028
     25 C         139.7799  145.4815  162.6098 C.3     1  UNL1        0.0723
     26 N         139.5452  146.0143  161.2273 N.3     1  UNL1       -0.3208
     27 H         140.4098  146.4182  160.8673 H       1  UNL1        0.1189
     28 H         138.8214  146.7323  161.2580 H       1  UNL1        0.1189
     29 C         138.6574  144.8327  163.3641 C.3     1  UNL1        0.0425
     30 C         137.8526  143.7428  162.7203 C.3     1  UNL1        0.1523
     31 S         138.5450  142.6323  161.9872 S.O2    1  UNL1       -0.0082
     32 C         139.2373  141.5218  161.2542 C.3     1  UNL1        0.1760
     33 O         138.0977  143.2163  160.6800 O.2     1  UNL1       -0.1729
     34 O         138.9923  142.0483  163.2944 O.2     1  UNL1       -0.1729
@<TRIPOS>BOND
     1    14    15    1
     2    15    16   ar
     3    16    17   ar
     4    17    18    1
     5    17    19   ar
     6    19    20   ar
     7    20    12    1
     8    12     1    1
     9     1     2   ar
    10     2     3   ar
    11     3    22    1
    12    22    24    1
    13    24    25    1
    14    25    26    1
    15    25    29    1
    16    29    30    1
    17    30    31    1
    18    31    32    1
    19    31    33    2
    20    31    34    2
    21     3     4   ar
    22     4     5   ar
    23     5     6   ar
    24     6     7    1
    25     7     8   am
    26     7     9    2
    27    20    21   ar
    28    21    15   ar
    29     6     1   ar
    30    12    13    1
    31    22    23    1
    32    26    27    1
    33    26    28    1
    34     8    10    1
    35     8    11    1
