@<TRIPOS>MOLECULE
*****
 27 30 0 0 0
SMALL
GASTEIGER

@<TRIPOS>ATOM
      1 C         141.0635  142.3524  167.8977 C.ar    1  UNL1       -0.0215
      2 C         142.5336  142.1219  167.7084 C.ar    1  UNL1       -0.0042
      3 C         143.1556  142.3172  166.3575 C.ar    1  UNL1       -0.0003
      4 C         142.3074  142.7431  165.1958 C.ar    1  UNL1       -0.0003
      5 C         140.8374  142.9736  165.3852 C.ar    1  UNL1       -0.0032
      6 C         140.2155  142.7782  166.7361 C.ar    1  UNL1       -0.0045
      7 C         139.9892  143.3994  164.2235 C.2     1  UNL1       -0.0011
      8 C         140.0405  144.8175  163.7374 C.2     1  UNL1        0.0472
      9 C         139.1924  145.2432  162.5758 C.2     1  UNL1        0.2354
     10 N         138.2930  144.2509  161.9003 N.2     1  UNL1       -0.0320
     11 C         138.2417  142.8328  162.3864 C.2     1  UNL1        0.3872
     12 N         137.4575  141.6408  161.9235 N.2     1  UNL1        0.0820
     13 N         137.8211  140.4783  162.7990 N.2     1  UNL1       -0.0337
     14 C         138.8299  140.9519  163.8030 C.2     1  UNL1        0.1921
     15 C         139.0898  142.4071  163.5480 C.3     1  UNL1        0.1845
     16 C         139.4669  140.1169  164.8740 C.3     1  UNL1        0.4355
     17 F         140.1038  139.2820  165.9450 F       1  UNL1       -0.1645
     18 F         138.2316  140.2521  165.7141 F       1  UNL1       -0.1645
     19 F         140.6843  139.8170  164.3737 F       1  UNL1       -0.1645
     20 C         140.4416  142.1571  169.2487 C.3     1  UNL1        0.0332
     21 C         139.8237  140.8736  168.7787 C.3     1  UNL1        0.0054
     22 C         139.2018  140.6783  170.1296 C.3     1  UNL1        0.0007
     23 C         139.8197  141.9618  170.5996 C.3     1  UNL1        0.0054
     24 N         140.1860  144.5639  170.1931 N.3     1  UNL1       -0.3209
     25 C         141.0595  143.4406  169.7187 C.3     1  UNL1        0.0691
     26 H         140.7688  145.3528  170.4730 H       1  UNL1        0.1189
     27 H         139.6322  144.2505  170.9904 H       1  UNL1        0.1189
@<TRIPOS>BOND
     1    24    25    1
     2    25    20    1
     3    20     1    1
     4     1     2   ar
     5     2     3   ar
     6     3     4   ar
     7     4     5   ar
     8     5     7    1
     9     7     8    2
    10     8     9    1
    11     9    10    2
    12    10    11    1
    13    11    12    2
    14    12    13    1
    15    13    14    2
    16    14    16    1
    17    16    17    1
    18    16    18    1
    19    16    19    1
    20    14    15    1
    21     5     6   ar
    22    20    21    1
    23    21    22    1
    24    22    23    1
    25    23    20    1
    26     6     1   ar
    27    15     7    1
    28    15    11    1
    29    24    26    1
    30    24    27    1
@<TRIPOS>MOLECULE
*****
 27 30 0 0 0
SMALL
GASTEIGER

@<TRIPOS>ATOM
      1 C         141.0258  142.2339  167.2925 C.ar    1  UNL1       -0.0215
      2 C         139.9061  141.2372  167.2377 C.ar    1  UNL1       -0.0042
      3 C         139.3111  140.8498  165.9164 C.ar    1  UNL1       -0.0003
      4 C         139.8357  141.4591  164.6500 C.ar    1  UNL1       -0.0003
      5 C         140.9553  142.4557  164.7049 C.ar    1  UNL1       -0.0032
      6 C         141.5504  142.8432  166.0262 C.ar    1  UNL1       -0.0045
      7 C         141.4799  143.0650  163.4385 C.2     1  UNL1       -0.0011
      8 C         142.7798  142.5900  162.8601 C.2     1  UNL1        0.0472
      9 C         143.3043  143.1993  161.5938 C.2     1  UNL1        0.2354
     10 N         142.5290  144.2835  160.9059 N.2     1  UNL1       -0.0320
     11 C         141.2291  144.7585  161.4843 C.2     1  UNL1        0.3872
     12 N         140.2516  145.8029  161.0329 N.2     1  UNL1        0.0820
     13 N         139.1230  145.8391  162.0203 N.2     1  UNL1       -0.0337
     14 C         139.4028  144.8171  163.0819 C.2     1  UNL1        0.1921
     15 C         140.7045  144.1492  162.7506 C.3     1  UNL1        0.1845
     16 C         138.5337  144.5158  164.2667 C.3     1  UNL1        0.4355
     17 F         137.6646  144.2145  165.4515 F       1  UNL1       -0.1645
     18 F         137.6359  143.6866  163.3971 F       1  UNL1       -0.1645
     19 F         139.1285  145.1743  165.2840 F       1  UNL1       -0.1645
     20 C         141.6209  142.6214  168.6138 C.3     1  UNL1        0.0332
     21 C         142.9274  142.0079  168.2053 C.3     1  UNL1        0.0054
     22 C         143.5225  142.3953  169.5266 C.3     1  UNL1        0.0007
     23 C         142.2160  143.0088  169.9351 C.3     1  UNL1        0.0054
     24 N         140.2866  144.3200  170.0575 N.3     1  UNL1       -0.3209
     25 C         140.3145  143.2349  169.0223 C.3     1  UNL1        0.0691
     26 H         139.3235  144.6185  170.2114 H       1  UNL1        0.1189
     27 H         140.8407  145.1129  169.7339 H       1  UNL1        0.1189
@<TRIPOS>BOND
     1    24    25    1
     2    25    20    1
     3    20     1    1
     4     1     2   ar
     5     2     3   ar
     6     3     4   ar
     7     4     5   ar
     8     5     7    1
     9     7     8    2
    10     8     9    1
    11     9    10    2
    12    10    11    1
    13    11    12    2
    14    12    13    1
    15    13    14    2
    16    14    16    1
    17    16    17    1
    18    16    18    1
    19    16    19    1
    20    14    15    1
    21     5     6   ar
    22    20    21    1
    23    21    22    1
    24    22    23    1
    25    23    20    1
    26     6     1   ar
    27    15     7    1
    28    15    11    1
    29    24    26    1
    30    24    27    1
@<TRIPOS>MOLECULE
*****
 27 30 0 0 0
SMALL
GASTEIGER

@<TRIPOS>ATOM
      1 C         140.8341  141.9508  168.0705 C.ar    1  UNL1       -0.0215
      2 C         140.4093  140.5130  168.1171 C.ar    1  UNL1       -0.0042
      3 C         139.6498  139.9178  166.9686 C.ar    1  UNL1       -0.0003
      4 C         139.3152  140.7605  165.7736 C.ar    1  UNL1       -0.0003
      5 C         139.7400  142.1983  165.7271 C.ar    1  UNL1       -0.0032
      6 C         140.4995  142.7934  166.8756 C.ar    1  UNL1       -0.0045
      7 C         139.4054  143.0409  164.5321 C.2     1  UNL1       -0.0011
      8 C         138.0062  143.5453  164.3381 C.2     1  UNL1        0.0472
      9 C         137.6716  144.3879  163.1431 C.2     1  UNL1        0.2354
     10 N         138.7363  144.7262  162.1421 N.2     1  UNL1       -0.0320
     11 C         140.1356  144.2219  162.3361 C.2     1  UNL1        0.3872
     12 N         141.3851  144.3910  161.5238 N.2     1  UNL1        0.0820
     13 N         142.4920  143.6530  162.2167 N.2     1  UNL1       -0.0337
     14 C         141.9265  143.0276  163.4573 C.2     1  UNL1        0.1921
     15 C         140.4701  143.3792  163.5311 C.3     1  UNL1        0.1845
     16 C         142.6843  142.1966  164.4498 C.3     1  UNL1        0.4355
     17 F         143.4420  141.3654  165.4423 F       1  UNL1       -0.1645
     18 F         142.1641  140.9480  163.8014 F       1  UNL1       -0.1645
     19 F         143.3035  143.1059  165.2322 F       1  UNL1       -0.1645
     20 C         141.5936  142.5460  169.2190 C.3     1  UNL1        0.0332
     21 C         142.8661  141.9629  168.6797 C.3     1  UNL1        0.0054
     22 C         143.6255  142.5581  169.8282 C.3     1  UNL1        0.0007
     23 C         142.3531  143.1412  170.3674 C.3     1  UNL1        0.0054
     24 N         140.2842  144.5584  170.2117 N.3     1  UNL1       -0.3209
     25 C         140.3211  143.1291  169.7583 C.3     1  UNL1        0.0691
     26 H         139.3475  144.7850  170.5459 H       1  UNL1        0.1189
     27 H         140.5235  145.1692  169.4307 H       1  UNL1        0.1189
@<TRIPOS>BOND
     1    24    25    1
     2    25    20    1
     3    20     1    1
     4     1     2   ar
     5     2     3   ar
     6     3     4   ar
     7     4     5   ar
     8     5     7    1
     9     7     8    2
    10     8     9    1
    11     9    10    2
    12    10    11    1
    13    11    12    2
    14    12    13    1
    15    13    14    2
    16    14    16    1
    17    16    17    1
    18    16    18    1
    19    16    19    1
    20    14    15    1
    21     5     6   ar
    22    20    21    1
    23    21    22    1
    24    22    23    1
    25    23    20    1
    26     6     1   ar
    27    15     7    1
    28    15    11    1
    29    24    26    1
    30    24    27    1
@<TRIPOS>MOLECULE
*****
 27 30 0 0 0
SMALL
GASTEIGER

@<TRIPOS>ATOM
      1 C         139.6996  140.3218  165.6990 C.ar    1  UNL1       -0.0215
      2 C         139.8102  140.9680  167.0482 C.ar    1  UNL1       -0.0042
      3 C         140.4199  142.3322  167.1787 C.ar    1  UNL1       -0.0003
      4 C         140.9191  143.0503  165.9599 C.ar    1  UNL1       -0.0003
      5 C         140.8085  142.4041  164.6108 C.ar    1  UNL1       -0.0032
      6 C         140.1988  141.0398  164.4804 C.ar    1  UNL1       -0.0045
      7 C         141.3077  143.1222  163.3920 C.2     1  UNL1       -0.0011
      8 C         142.6794  142.8315  162.8595 C.2     1  UNL1        0.0472
      9 C         143.1785  143.5495  161.6408 C.2     1  UNL1        0.2354
     10 N         142.3058  144.5583  160.9546 N.2     1  UNL1       -0.0320
     11 C         140.9340  144.8489  161.4872 C.2     1  UNL1        0.3872
     12 N         139.8558  145.7843  161.0263 N.2     1  UNL1        0.0820
     13 N         138.6903  145.6444  161.9601 N.2     1  UNL1       -0.0337
     14 C         139.0482  144.6225  162.9982 C.2     1  UNL1        0.1921
     15 C         140.4349  144.1309  162.7059 C.3     1  UNL1        0.1845
     16 C         138.1731  144.1714  164.1299 C.3     1  UNL1        0.4355
     17 F         137.2981  143.7204  165.2616 F       1  UNL1       -0.1645
     18 F         138.7229  145.2686  164.9923 F       1  UNL1       -0.1645
     19 F         137.5024  143.1151  163.6232 F       1  UNL1       -0.1645
     20 C         139.0899  138.9575  165.5686 C.3     1  UNL1        0.0332
     21 C         139.8650  138.7319  164.3044 C.3     1  UNL1        0.0054
     22 C         139.2553  137.3677  164.1739 C.3     1  UNL1        0.0007
     23 C         138.4802  137.5933  165.4382 C.3     1  UNL1        0.0054
     24 N         137.2943  138.1772  167.2765 N.3     1  UNL1       -0.3209
     25 C         138.3147  139.1831  166.8328 C.3     1  UNL1        0.0691
     26 H         136.8669  138.4886  168.1487 H       1  UNL1        0.1189
     27 H         137.7473  137.2752  167.4228 H       1  UNL1        0.1189
@<TRIPOS>BOND
     1    24    25    1
     2    25    20    1
     3    20     1    1
     4     1     2   ar
     5     2     3   ar
     6     3     4   ar
     7     4     5   ar
     8     5     7    1
     9     7     8    2
    10     8     9    1
    11     9    10    2
    12    10    11    1
    13    11    12    2
    14    12    13    1
    15    13    14    2
    16    14    16    1
    17    16    17    1
    18    16    18    1
    19    16    19    1
    20    14    15    1
    21     5     6   ar
    22    20    21    1
    23    21    22    1
    24    22    23    1
    25    23    20    1
    26     6     1   ar
    27    15     7    1
    28    15    11    1
    29    24    26    1
    30    24    27    1
@<TRIPOS>MOLECULE
*****
 27 30 0 0 0
SMALL
GASTEIGER

@<TRIPOS>ATOM
      1 C         141.3812  140.0004  167.4773 C.ar    1  UNL1       -0.0215
      2 C         142.7687  139.6954  166.9957 C.ar    1  UNL1       -0.0042
      3 C         143.0854  139.7608  165.5309 C.ar    1  UNL1       -0.0003
      4 C         142.0147  140.1311  164.5478 C.ar    1  UNL1       -0.0003
      5 C         140.6272  140.4361  165.0295 C.ar    1  UNL1       -0.0032
      6 C         140.3105  140.3708  166.4942 C.ar    1  UNL1       -0.0045
      7 C         139.5565  140.8065  164.0464 C.2     1  UNL1       -0.0011
      8 C         139.1237  142.2364  163.9121 C.2     1  UNL1        0.0472
      9 C         138.0530  142.6067  162.9290 C.2     1  UNL1        0.2354
     10 N         137.4151  141.5471  162.0803 N.2     1  UNL1       -0.0320
     11 C         137.8479  140.1172  162.2146 C.2     1  UNL1        0.3872
     12 N         137.4044  138.8647  161.5186 N.2     1  UNL1        0.0820
     13 N         138.2010  137.7202  162.0715 N.2     1  UNL1       -0.0337
     14 C         139.1369  138.2654  163.1092 C.2     1  UNL1        0.1921
     15 C         138.9186  139.7469  163.1977 C.3     1  UNL1        0.1845
     16 C         140.1186  137.4691  163.9167 C.3     1  UNL1        0.4355
     17 F         141.1002  136.6728  164.7243 F       1  UNL1       -0.1645
     18 F         139.1828  137.5038  165.0885 F       1  UNL1       -0.1645
     19 F         141.1495  137.2654  163.0694 F       1  UNL1       -0.1645
     20 C         141.0644  139.9350  168.9420 C.3     1  UNL1        0.0332
     21 C         139.6484  140.3372  168.6537 C.3     1  UNL1        0.0054
     22 C         139.3316  140.2718  170.1185 C.3     1  UNL1        0.0007
     23 C         140.7477  139.8697  170.4067 C.3     1  UNL1        0.0054
     24 N         142.8525  139.0199  170.5898 N.3     1  UNL1       -0.3209
     25 C         142.4805  139.5329  169.2303 C.3     1  UNL1        0.0691
     26 H         143.8474  138.7958  170.6081 H       1  UNL1        0.1189
     27 H         142.3110  138.1805  170.7963 H       1  UNL1        0.1189
@<TRIPOS>BOND
     1    24    25    1
     2    25    20    1
     3    20     1    1
     4     1     2   ar
     5     2     3   ar
     6     3     4   ar
     7     4     5   ar
     8     5     7    1
     9     7     8    2
    10     8     9    1
    11     9    10    2
    12    10    11    1
    13    11    12    2
    14    12    13    1
    15    13    14    2
    16    14    16    1
    17    16    17    1
    18    16    18    1
    19    16    19    1
    20    14    15    1
    21     5     6   ar
    22    20    21    1
    23    21    22    1
    24    22    23    1
    25    23    20    1
    26     6     1   ar
    27    15     7    1
    28    15    11    1
    29    24    26    1
    30    24    27    1
@<TRIPOS>MOLECULE
*****
 27 30 0 0 0
SMALL
GASTEIGER

@<TRIPOS>ATOM
      1 C         141.4307  140.1673  167.5172 C.ar    1  UNL1       -0.0215
      2 C         142.4101  139.2129  166.9007 C.ar    1  UNL1       -0.0042
      3 C         142.7976  139.3629  165.4594 C.ar    1  UNL1       -0.0003
      4 C         142.2058  140.4673  164.6347 C.ar    1  UNL1       -0.0003
      5 C         141.2265  141.4216  165.2512 C.ar    1  UNL1       -0.0032
      6 C         140.8390  141.2716  166.6925 C.ar    1  UNL1       -0.0045
      7 C         140.6347  142.5260  164.4264 C.2     1  UNL1       -0.0011
      8 C         141.3770  143.8189  164.2609 C.2     1  UNL1        0.0472
      9 C         140.7852  144.9232  163.4362 C.2     1  UNL1        0.2354
     10 N         139.4511  144.7347  162.7770 N.2     1  UNL1       -0.0320
     11 C         138.7088  143.4418  162.9425 C.2     1  UNL1        0.3872
     12 N         137.3858  142.9696  162.4166 N.2     1  UNL1        0.0820
     13 N         137.1599  141.5734  162.9163 N.2     1  UNL1       -0.0337
     14 C         138.3433  141.1827  163.7511 C.2     1  UNL1        0.1921
     15 C         139.3006  142.3375  163.7672 C.3     1  UNL1        0.1845
     16 C         138.5357  139.8681  164.4474 C.3     1  UNL1        0.4355
     17 F         138.7282  138.5536  165.1436 F       1  UNL1       -0.1645
     18 F         139.3291  139.3650  163.2780 F       1  UNL1       -0.1645
     19 F         137.8848  140.0212  165.6200 F       1  UNL1       -0.1645
     20 C         141.0432  140.0173  168.9585 C.3     1  UNL1        0.0332
     21 C         139.6304  140.3884  168.6172 C.3     1  UNL1        0.0054
     22 C         139.2428  140.2384  170.0585 C.3     1  UNL1        0.0007
     23 C         140.6556  139.8673  170.3998 C.3     1  UNL1        0.0054
     24 N         142.7262  138.6050  170.3451 N.3     1  UNL1       -0.3209
     25 C         142.4559  139.6463  169.2998 C.3     1  UNL1        0.0691
     26 H         143.7333  138.4798  170.4477 H       1  UNL1        0.1189
     27 H         142.3007  137.7219  170.0633 H       1  UNL1        0.1189
@<TRIPOS>BOND
     1    24    25    1
     2    25    20    1
     3    20     1    1
     4     1     2   ar
     5     2     3   ar
     6     3     4   ar
     7     4     5   ar
     8     5     7    1
     9     7     8    2
    10     8     9    1
    11     9    10    2
    12    10    11    1
    13    11    12    2
    14    12    13    1
    15    13    14    2
    16    14    16    1
    17    16    17    1
    18    16    18    1
    19    16    19    1
    20    14    15    1
    21     5     6   ar
    22    20    21    1
    23    21    22    1
    24    22    23    1
    25    23    20    1
    26     6     1   ar
    27    15     7    1
    28    15    11    1
    29    24    26    1
    30    24    27    1
@<TRIPOS>MOLECULE
*****
 27 30 0 0 0
SMALL
GASTEIGER

@<TRIPOS>ATOM
      1 C         139.4575  140.1243  166.3718 C.ar    1  UNL1       -0.0215
      2 C         139.7690  140.4779  167.7959 C.ar    1  UNL1       -0.0042
      3 C         140.2872  141.8446  168.1331 C.ar    1  UNL1       -0.0003
      4 C         140.4939  142.8576  167.0462 C.ar    1  UNL1       -0.0003
      5 C         140.1824  142.5039  165.6222 C.ar    1  UNL1       -0.0032
      6 C         139.6641  141.1372  165.2850 C.ar    1  UNL1       -0.0045
      7 C         140.3891  143.5169  164.5354 C.2     1  UNL1       -0.0011
      8 C         139.2345  144.3421  164.0499 C.2     1  UNL1        0.0472
      9 C         139.4412  145.3551  162.9630 C.2     1  UNL1        0.2354
     10 N         140.8025  145.5427  162.3617 N.2     1  UNL1       -0.0320
     11 C         141.9571  144.7174  162.8472 C.2     1  UNL1        0.3872
     12 N         143.4025  144.6803  162.4478 N.2     1  UNL1        0.0820
     13 N         144.0891  143.6444  163.2878 N.2     1  UNL1       -0.0337
     14 C         143.0680  143.0413  164.2064 C.2     1  UNL1        0.1921
     15 C         141.7504  143.7045  163.9340 C.3     1  UNL1        0.1845
     16 C         143.3203  141.9642  165.2193 C.3     1  UNL1        0.4355
     17 F         143.5725  140.8871  166.2324 F       1  UNL1       -0.1645
     18 F         143.8393  142.9910  166.1818 F       1  UNL1       -0.1645
     19 F         142.9220  140.8330  164.5995 F       1  UNL1       -0.1645
     20 C         138.9392  138.7576  166.0346 C.3     1  UNL1        0.0332
     21 C         137.9706  138.8431  167.1767 C.3     1  UNL1        0.0054
     22 C         137.4524  137.4764  166.8395 C.3     1  UNL1        0.0007
     23 C         138.4210  137.3910  165.6974 C.3     1  UNL1        0.0054
     24 N         139.6576  137.7126  163.7670 N.3     1  UNL1       -0.3209
     25 C         139.9078  138.6722  164.8924 C.3     1  UNL1        0.0691
     26 H         140.4106  137.7870  163.0830 H       1  UNL1        0.1189
     27 H         138.7687  137.9372  163.3200 H       1  UNL1        0.1189
@<TRIPOS>BOND
     1    24    25    1
     2    25    20    1
     3    20     1    1
     4     1     2   ar
     5     2     3   ar
     6     3     4   ar
     7     4     5   ar
     8     5     7    1
     9     7     8    2
    10     8     9    1
    11     9    10    2
    12    10    11    1
    13    11    12    2
    14    12    13    1
    15    13    14    2
    16    14    16    1
    17    16    17    1
    18    16    18    1
    19    16    19    1
    20    14    15    1
    21     5     6   ar
    22    20    21    1
    23    21    22    1
    24    22    23    1
    25    23    20    1
    26     6     1   ar
    27    15     7    1
    28    15    11    1
    29    24    26    1
    30    24    27    1
@<TRIPOS>MOLECULE
*****
 27 30 0 0 0
SMALL
GASTEIGER

@<TRIPOS>ATOM
      1 C         141.2738  139.7765  167.6961 C.ar    1  UNL1       -0.0215
      2 C         142.7375  139.6668  167.3865 C.ar    1  UNL1       -0.0042
      3 C         143.1901  139.4321  165.9758 C.ar    1  UNL1       -0.0003
      4 C         142.1790  139.3072  164.8747 C.ar    1  UNL1       -0.0003
      5 C         140.7155  139.4169  165.1844 C.ar    1  UNL1       -0.0032
      6 C         140.2629  139.6516  166.5951 C.ar    1  UNL1       -0.0045
      7 C         139.7044  139.2920  164.0833 C.2     1  UNL1       -0.0011
      8 C         139.3395  137.9383  163.5503 C.2     1  UNL1        0.0472
      9 C         138.3285  137.8134  162.4493 C.2     1  UNL1        0.2354
     10 N         137.6824  139.0422  161.8813 N.2     1  UNL1       -0.0320
     11 C         138.0474  140.3960  162.4144 C.2     1  UNL1        0.3872
     12 N         137.5807  141.7754  162.0550 N.2     1  UNL1        0.0820
     13 N         138.3032  142.7529  162.9339 N.2     1  UNL1       -0.0337
     14 C         139.2165  141.9776  163.8365 C.2     1  UNL1        0.1921
     15 C         139.0584  140.5208  163.5154 C.3     1  UNL1        0.1845
     16 C         140.1279  142.5571  164.8774 C.3     1  UNL1        0.4355
     17 F         141.0394  143.1366  165.9183 F       1  UNL1       -0.1645
     18 F         141.2833  142.4461  163.9274 F       1  UNL1       -0.1645
     19 F         139.3174  142.7802  165.9337 F       1  UNL1       -0.1645
     20 C         140.8212  140.0112  169.1068 C.3     1  UNL1        0.0332
     21 C         139.4118  140.1889  168.6251 C.3     1  UNL1        0.0054
     22 C         138.9593  140.4235  170.0358 C.3     1  UNL1        0.0007
     23 C         140.3686  140.2458  170.5175 C.3     1  UNL1        0.0054
     24 N         142.5777  140.1290  171.0176 N.3     1  UNL1       -0.3209
     25 C         142.2306  139.8334  169.5886 C.3     1  UNL1        0.0691
     26 H         143.5712  139.9550  171.1692 H       1  UNL1        0.1189
     27 H         142.0295  139.5271  171.6321 H       1  UNL1        0.1189
@<TRIPOS>BOND
     1    24    25    1
     2    25    20    1
     3    20     1    1
     4     1     2   ar
     5     2     3   ar
     6     3     4   ar
     7     4     5   ar
     8     5     7    1
     9     7     8    2
    10     8     9    1
    11     9    10    2
    12    10    11    1
    13    11    12    2
    14    12    13    1
    15    13    14    2
    16    14    16    1
    17    16    17    1
    18    16    18    1
    19    16    19    1
    20    14    15    1
    21     5     6   ar
    22    20    21    1
    23    21    22    1
    24    22    23    1
    25    23    20    1
    26     6     1   ar
    27    15     7    1
    28    15    11    1
    29    24    26    1
    30    24    27    1
@<TRIPOS>MOLECULE
*****
 27 30 0 0 0
SMALL
GASTEIGER

@<TRIPOS>ATOM
      1 C         140.4893  140.9533  167.6693 C.ar    1  UNL1       -0.0215
      2 C         139.5179  139.9540  167.1144 C.ar    1  UNL1       -0.0042
      3 C         139.7058  139.4160  165.7269 C.ar    1  UNL1       -0.0003
      4 C         140.8652  139.8773  164.8942 C.ar    1  UNL1       -0.0003
      5 C         141.8365  140.8766  165.4491 C.ar    1  UNL1       -0.0032
      6 C         141.6486  141.4146  166.8367 C.ar    1  UNL1       -0.0045
      7 C         142.9958  141.3379  164.6165 C.2     1  UNL1       -0.0011
      8 C         144.2887  140.5780  164.6445 C.2     1  UNL1        0.0472
      9 C         145.4480  141.0393  163.8119 C.2     1  UNL1        0.2354
     10 N         145.3143  142.2606  162.9513 N.2     1  UNL1       -0.0320
     11 C         144.0214  143.0205  162.9232 C.2     1  UNL1        0.3872
     12 N         143.5962  144.2508  162.1780 N.2     1  UNL1        0.0820
     13 N         142.1742  144.5499  162.5500 N.2     1  UNL1       -0.0337
     14 C         141.7204  143.5044  163.5252 C.2     1  UNL1        0.1921
     15 C         142.8621  142.5591  163.7558 C.3     1  UNL1        0.1845
     16 C         140.3634  143.4191  164.1585 C.3     1  UNL1        0.4355
     17 F         139.0063  143.3337  164.7918 F       1  UNL1       -0.1645
     18 F         139.8733  142.6044  162.9984 F       1  UNL1       -0.1645
     19 F         140.4959  144.1120  165.3095 F       1  UNL1       -0.1645
     20 C         140.3014  141.4913  169.0568 C.3     1  UNL1        0.0332
     21 C         140.5052  142.8860  168.5437 C.3     1  UNL1        0.0054
     22 C         140.3172  143.4240  169.9312 C.3     1  UNL1        0.0007
     23 C         140.1135  142.0293  170.4444 C.3     1  UNL1        0.0054
     24 N         139.8953  139.8594  171.0372 N.3     1  UNL1       -0.3209
     25 C         140.0976  140.0966  169.5700 C.3     1  UNL1        0.0691
     26 H         139.7735  138.8609  171.2066 H       1  UNL1        0.1189
     27 H         139.0648  140.3613  171.3515 H       1  UNL1        0.1189
@<TRIPOS>BOND
     1    24    25    1
     2    25    20    1
     3    20     1    1
     4     1     2   ar
     5     2     3   ar
     6     3     4   ar
     7     4     5   ar
     8     5     7    1
     9     7     8    2
    10     8     9    1
    11     9    10    2
    12    10    11    1
    13    11    12    2
    14    12    13    1
    15    13    14    2
    16    14    16    1
    17    16    17    1
    18    16    18    1
    19    16    19    1
    20    14    15    1
    21     5     6   ar
    22    20    21    1
    23    21    22    1
    24    22    23    1
    25    23    20    1
    26     6     1   ar
    27    15     7    1
    28    15    11    1
    29    24    26    1
    30    24    27    1
