@<TRIPOS>MOLECULE
*****
 36 39 0 0 0
SMALL
GASTEIGER

@<TRIPOS>ATOM
      1 C         141.4058  138.7218  159.5117 C.3     1  UNL1        0.2196
      2 C         140.0062  138.7736  160.0488 C.3     1  UNL1        0.1398
      3 N         140.0160  138.1797  161.4262 N.am    1  UNL1       -0.2725
      4 C         138.8286  138.0309  162.3305 C.2     1  UNL1        0.2303
      5 O         137.4773  138.4984  161.8773 O.2     1  UNL1       -0.2745
      6 C         141.4216  137.7609  161.7404 C.3     1  UNL1        0.1325
      7 C         142.2806  138.0959  160.5572 C.3     1  UNL1        0.2219
      8 F         143.7554  137.8485  160.4400 F       1  UNL1       -0.2315
      9 O         141.8522  139.2101  158.1655 O.3     1  UNL1       -0.4717
     10 C         143.0861  135.9500  156.2684 C.ar    1  UNL1        0.0415
     11 C         144.2239  136.5040  155.4632 C.ar    1  UNL1        0.1020
     12 N         144.5712  137.9601  155.5588 N.ar    1  UNL1       -0.2264
     13 C         143.7806  138.8621  156.4595 C.ar    1  UNL1        0.1597
     14 N         144.1279  140.3183  156.5551 N.pl3   1  UNL1       -0.3402
     15 C         142.6428  138.3081  157.2647 C.ar    1  UNL1        0.1696
     16 C         142.2956  136.8520  157.1692 C.ar    1  UNL1        0.0429
     17 H         144.8747  140.6819  156.0266 H       1  UNL1        0.1438
     18 H         143.6091  140.9103  157.1463 H       1  UNL1        0.1438
     19 C         140.8416  131.4101  154.7740 C.3     1  UNL1        0.1321
     20 N         141.7071  132.4071  155.4860 N.ar    1  UNL1       -0.3059
     21 C         142.7017  132.0990  156.5658 C.ar    1  UNL1        0.1786
     22 N         143.3393  133.3887  156.9903 N.ar    1  UNL1       -0.2238
     23 C         142.7388  134.4938  156.1729 C.ar    1  UNL1        0.1018
     24 C         141.7301  133.8871  155.2431 C.ar    1  UNL1        0.0965
     25 C         138.9925  137.4144  163.6881 C.3     1  UNL1        0.1116
     26 C         139.1947  138.2892  164.8897 C.ar    1  UNL1       -0.0129
     27 C         138.2046  138.2571  166.0161 C.ar    1  UNL1       -0.0007
     28 C         138.4069  139.1319  167.2177 C.ar    1  UNL1        0.0369
     29 C         139.5993  140.0389  167.2929 C.ar    1  UNL1        0.1468
     30 C         140.5894  140.0711  166.1664 C.ar    1  UNL1        0.0369
     31 C         140.3871  139.1963  164.9649 C.ar    1  UNL1       -0.0007
     32 O         139.8016  140.9137  168.4943 O.3     1  UNL1       -0.4045
     33 C         139.7929  140.3136  169.8690 C.3     1  UNL1        0.5753
     34 F         139.7843  139.7135  171.2437 F       1  UNL1       -0.1328
     35 F         141.0499  139.5606  169.5482 F       1  UNL1       -0.1328
     36 F         138.5360  141.0667  170.1899 F       1  UNL1       -0.1328
@<TRIPOS>BOND
     1    19    20    1
     2    20    21   ar
     3    21    22   ar
     4    22    23   ar
     5    23    10    1
     6    10    11   ar
     7    11    12   ar
     8    12    13   ar
     9    13    14    1
    10    13    15   ar
    11    15     9    1
    12     1     9    1
    13     1     2    1
    14     2     3    1
    15     3     4   am
    16     4     5    2
    17     4    25    1
    18    25    26    1
    19    26    27   ar
    20    27    28   ar
    21    28    29   ar
    22    29    32    1
    23    32    33    1
    24    33    34    1
    25    33    35    1
    26    33    36    1
    27    29    30   ar
    28    30    31   ar
    29     3     6    1
    30     6     7    1
    31     7     8    1
    32    15    16   ar
    33    23    24   ar
    34    24    20   ar
    35    16    10   ar
    36     7     1    1
    37    31    26   ar
    38    14    17    1
    39    14    18    1
@<TRIPOS>MOLECULE
*****
 36 39 0 0 0
SMALL
GASTEIGER

@<TRIPOS>ATOM
      1 C         141.4215  138.7716  159.4841 C.3     1  UNL1        0.2196
      2 C         140.0153  138.8271  160.0035 C.3     1  UNL1        0.1398
      3 N         140.0039  138.2223  161.3761 N.am    1  UNL1       -0.2725
      4 C         138.8041  138.0731  162.2638 C.2     1  UNL1        0.2303
      5 O         137.4615  138.5520  161.7970 O.2     1  UNL1       -0.2745
      6 C         141.4030  137.7929  161.7051 C.3     1  UNL1        0.1325
      7 C         142.2792  138.1324  160.5357 C.3     1  UNL1        0.2219
      8 F         143.7539  137.8775  160.4357 F       1  UNL1       -0.2315
      9 O         141.8881  139.2680  158.1478 O.3     1  UNL1       -0.4717
     10 C         143.1340  135.9946  156.2817 C.ar    1  UNL1        0.0415
     11 C         144.2381  136.5541  155.4345 C.ar    1  UNL1        0.1020
     12 N         144.5589  138.0183  155.4917 N.ar    1  UNL1       -0.2264
     13 C         143.7756  138.9229  156.3962 C.ar    1  UNL1        0.1597
     14 N         144.0964  140.3871  156.4534 N.pl3   1  UNL1       -0.3402
     15 C         142.6714  138.3634  157.2433 C.ar    1  UNL1        0.1696
     16 C         142.3506  136.8992  157.1861 C.ar    1  UNL1        0.0429
     17 H         144.8211  140.7543  155.8973 H       1  UNL1        0.1438
     18 H         143.5823  140.9809  157.0470 H       1  UNL1        0.1438
     19 C         143.2713  130.7862  157.1393 C.3     1  UNL1        0.1321
     20 N         142.8762  132.1364  156.6186 N.ar    1  UNL1       -0.3059
     21 C         141.7625  132.4181  155.6541 C.ar    1  UNL1        0.1786
     22 N         141.7235  133.8977  155.4105 N.ar    1  UNL1       -0.2238
     23 C         142.8131  134.5304  156.2244 C.ar    1  UNL1        0.1018
     24 C         143.5255  133.4418  156.9711 C.ar    1  UNL1        0.0965
     25 C         138.9469  137.4449  163.6184 C.3     1  UNL1        0.1116
     26 C         139.1346  138.3092  164.8300 C.ar    1  UNL1       -0.0129
     27 C         138.1920  138.1887  165.9906 C.ar    1  UNL1       -0.0007
     28 C         138.3798  139.0530  167.2022 C.ar    1  UNL1        0.0369
     29 C         139.5101  140.0377  167.2531 C.ar    1  UNL1        0.1468
     30 C         140.4528  140.1582  166.0924 C.ar    1  UNL1        0.0369
     31 C         140.2650  139.2940  164.8809 C.ar    1  UNL1       -0.0007
     32 O         139.6979  140.9019  168.4645 O.3     1  UNL1       -0.4045
     33 C         139.7554  140.2796  169.8282 C.3     1  UNL1        0.5753
     34 F         139.8129  139.6573  171.1918 F       1  UNL1       -0.1328
     35 F         138.3756  140.7907  170.1196 F       1  UNL1       -0.1328
     36 F         141.1352  139.7686  169.5367 F       1  UNL1       -0.1328
@<TRIPOS>BOND
     1    19    20    1
     2    20    21   ar
     3    21    22   ar
     4    22    23   ar
     5    23    10    1
     6    10    11   ar
     7    11    12   ar
     8    12    13   ar
     9    13    14    1
    10    13    15   ar
    11    15     9    1
    12     1     9    1
    13     1     2    1
    14     2     3    1
    15     3     4   am
    16     4     5    2
    17     4    25    1
    18    25    26    1
    19    26    27   ar
    20    27    28   ar
    21    28    29   ar
    22    29    32    1
    23    32    33    1
    24    33    34    1
    25    33    35    1
    26    33    36    1
    27    29    30   ar
    28    30    31   ar
    29     3     6    1
    30     6     7    1
    31     7     8    1
    32    15    16   ar
    33    23    24   ar
    34    24    20   ar
    35    16    10   ar
    36     7     1    1
    37    31    26   ar
    38    14    17    1
    39    14    18    1
@<TRIPOS>MOLECULE
*****
 36 39 0 0 0
SMALL
GASTEIGER

@<TRIPOS>ATOM
      1 C         138.2411  142.5563  162.2381 C.3     1  UNL1        0.2196
      2 C         138.4144  141.0777  162.4228 C.3     1  UNL1        0.1398
      3 N         138.2865  140.7753  163.8865 N.am    1  UNL1       -0.2725
      4 C         138.3924  139.4195  164.5191 C.2     1  UNL1        0.2303
      5 O         138.6488  138.2121  163.6668 O.2     1  UNL1       -0.2745
      6 C         138.0342  142.0669  164.6064 C.3     1  UNL1        0.1325
      7 C         138.0061  143.1676  163.5876 C.3     1  UNL1        0.2219
      8 F         137.7824  144.6239  163.8689 F       1  UNL1       -0.2315
      9 O         138.2935  143.2938  160.9330 O.3     1  UNL1       -0.4717
     10 C         141.6623  142.7179  158.9157 C.ar    1  UNL1        0.0415
     11 C         142.2572  144.0942  158.9585 C.ar    1  UNL1        0.1020
     12 N         141.5308  145.2037  159.6595 N.ar    1  UNL1       -0.2264
     13 C         140.2096  144.9369  160.3176 C.ar    1  UNL1        0.1597
     14 N         139.4833  146.0465  161.0186 N.pl3   1  UNL1       -0.3402
     15 C         139.6147  143.5606  160.2749 C.ar    1  UNL1        0.1696
     16 C         140.3411  142.4511  159.5739 C.ar    1  UNL1        0.0429
     17 H         139.8738  146.9498  161.0467 H       1  UNL1        0.1438
     18 H         138.6161  145.8714  161.4506 H       1  UNL1        0.1438
     19 C         142.8648  137.9849  156.9073 C.3     1  UNL1        0.1321
     20 N         142.9413  139.4328  157.2916 N.ar    1  UNL1       -0.3059
     21 C         144.0714  140.3690  156.9805 C.ar    1  UNL1        0.1786
     22 N         143.7297  141.7135  157.5511 N.ar    1  UNL1       -0.2238
     23 C         142.3886  141.6083  158.2147 C.ar    1  UNL1        0.1018
     24 C         141.9014  140.1987  158.0544 C.ar    1  UNL1        0.0965
     25 C         138.2419  139.2710  166.0041 C.3     1  UNL1        0.1116
     26 C         139.3808  139.6273  166.9129 C.ar    1  UNL1       -0.0129
     27 C         140.7816  139.6710  166.3783 C.ar    1  UNL1       -0.0007
     28 C         141.9205  140.0273  167.2871 C.ar    1  UNL1        0.0369
     29 C         141.6586  140.3400  168.7306 C.ar    1  UNL1        0.1468
     30 C         140.2578  140.2963  169.2653 C.ar    1  UNL1        0.0369
     31 C         139.1189  139.9399  168.3564 C.ar    1  UNL1       -0.0007
     32 O         142.7974  140.6963  169.6394 O.3     1  UNL1       -0.4045
     33 C         142.9681  142.1107  170.1088 C.3     1  UNL1        0.5753
     34 F         143.1389  143.5251  170.5781 F       1  UNL1       -0.1328
     35 F         143.7415  142.4304  168.8639 F       1  UNL1       -0.1328
     36 F         142.1948  141.7909  171.3536 F       1  UNL1       -0.1328
@<TRIPOS>BOND
     1    19    20    1
     2    20    21   ar
     3    21    22   ar
     4    22    23   ar
     5    23    10    1
     6    10    11   ar
     7    11    12   ar
     8    12    13   ar
     9    13    14    1
    10    13    15   ar
    11    15     9    1
    12     1     9    1
    13     1     2    1
    14     2     3    1
    15     3     4   am
    16     4     5    2
    17     4    25    1
    18    25    26    1
    19    26    27   ar
    20    27    28   ar
    21    28    29   ar
    22    29    32    1
    23    32    33    1
    24    33    34    1
    25    33    35    1
    26    33    36    1
    27    29    30   ar
    28    30    31   ar
    29     3     6    1
    30     6     7    1
    31     7     8    1
    32    15    16   ar
    33    23    24   ar
    34    24    20   ar
    35    16    10   ar
    36     7     1    1
    37    31    26   ar
    38    14    17    1
    39    14    18    1
@<TRIPOS>MOLECULE
*****
 36 39 0 0 0
SMALL
GASTEIGER

@<TRIPOS>ATOM
      1 C         139.8205  139.2535  158.8138 C.3     1  UNL1        0.2196
      2 C         140.4727  138.4757  159.9183 C.3     1  UNL1        0.1398
      3 N         139.5443  138.4763  161.0965 N.am    1  UNL1       -0.2725
      4 C         139.7974  137.8150  162.4187 C.2     1  UNL1        0.2303
      5 O         141.0770  137.0675  162.6507 O.2     1  UNL1       -0.2745
      6 C         138.3183  139.2545  160.7202 C.3     1  UNL1        0.1325
      7 C         138.4891  139.7348  159.3094 C.3     1  UNL1        0.2219
      8 F         137.5017  140.5528  158.5309 F       1  UNL1       -0.2315
      9 O         140.3984  139.5056  157.4528 O.3     1  UNL1       -0.4717
     10 C         142.4951  136.3374  156.3055 C.ar    1  UNL1        0.0415
     11 C         143.8046  136.9774  155.9508 C.ar    1  UNL1        0.1020
     12 N         143.9786  138.4600  156.0969 N.ar    1  UNL1       -0.2264
     13 C         142.8432  139.3028  156.5975 C.ar    1  UNL1        0.1597
     14 N         143.0173  140.7855  156.7435 N.pl3   1  UNL1       -0.3402
     15 C         141.5338  138.6629  156.9521 C.ar    1  UNL1        0.1696
     16 C         141.3597  137.1802  156.8061 C.ar    1  UNL1        0.0429
     17 H         143.8768  141.2055  156.5107 H       1  UNL1        0.1438
     18 H         142.2721  141.3387  157.0721 H       1  UNL1        0.1438
     19 C         140.7742  131.6197  154.6737 C.3     1  UNL1        0.1321
     20 N         141.5300  132.6862  155.4094 N.ar    1  UNL1       -0.3059
     21 C         142.5763  132.4599  156.4602 C.ar    1  UNL1        0.1786
     22 N         143.0651  133.8001  156.9237 N.ar    1  UNL1       -0.2238
     23 C         142.3210  134.8547  156.1594 C.ar    1  UNL1        0.1018
     24 C         141.3723  134.1663  155.2235 C.ar    1  UNL1        0.0965
     25 C         138.7709  137.9011  163.5091 C.3     1  UNL1        0.1116
     26 C         139.0753  138.6582  164.7678 C.ar    1  UNL1       -0.0129
     27 C         140.1974  139.6533  164.7918 C.ar    1  UNL1       -0.0007
     28 C         140.5017  140.4104  166.0505 C.ar    1  UNL1        0.0369
     29 C         139.6839  140.1722  167.2852 C.ar    1  UNL1        0.1468
     30 C         138.5618  139.1770  167.2612 C.ar    1  UNL1        0.0369
     31 C         138.2574  138.4200  166.0025 C.ar    1  UNL1       -0.0007
     32 O         139.9882  140.9292  168.5439 O.3     1  UNL1       -0.4045
     33 C         139.8333  140.2602  169.8774 C.3     1  UNL1        0.5753
     34 F         139.6784  139.5912  171.2110 F       1  UNL1       -0.1328
     35 F         138.5392  140.9878  170.0921 F       1  UNL1       -0.1328
     36 F         141.1273  139.5326  169.6628 F       1  UNL1       -0.1328
@<TRIPOS>BOND
     1    19    20    1
     2    20    21   ar
     3    21    22   ar
     4    22    23   ar
     5    23    10    1
     6    10    11   ar
     7    11    12   ar
     8    12    13   ar
     9    13    14    1
    10    13    15   ar
    11    15     9    1
    12     1     9    1
    13     1     2    1
    14     2     3    1
    15     3     4   am
    16     4     5    2
    17     4    25    1
    18    25    26    1
    19    26    27   ar
    20    27    28   ar
    21    28    29   ar
    22    29    32    1
    23    32    33    1
    24    33    34    1
    25    33    35    1
    26    33    36    1
    27    29    30   ar
    28    30    31   ar
    29     3     6    1
    30     6     7    1
    31     7     8    1
    32    15    16   ar
    33    23    24   ar
    34    24    20   ar
    35    16    10   ar
    36     7     1    1
    37    31    26   ar
    38    14    17    1
    39    14    18    1
@<TRIPOS>MOLECULE
*****
 36 39 0 0 0
SMALL
GASTEIGER

@<TRIPOS>ATOM
      1 C         140.2092  139.0303  159.1060 C.3     1  UNL1        0.2196
      2 C         140.7823  138.2586  160.2577 C.3     1  UNL1        0.1398
      3 N         139.7836  138.2854  161.3765 N.am    1  UNL1       -0.2725
      4 C         139.9465  137.6377  162.7195 C.2     1  UNL1        0.2303
      5 O         141.1997  136.8776  163.0385 O.2     1  UNL1       -0.2745
      6 C         138.5931  139.0737  160.9164 C.3     1  UNL1        0.1325
      7 C         138.8563  139.5340  159.5131 C.3     1  UNL1        0.2219
      8 F         137.9292  140.3541  158.6658 F       1  UNL1       -0.2315
      9 O         140.8727  139.2581  157.7802 O.3     1  UNL1       -0.4717
     10 C         141.6998  135.7888  156.0397 C.ar    1  UNL1        0.0415
     11 C         140.9931  135.9545  154.7271 C.ar    1  UNL1        0.1020
     12 N         140.2462  137.2214  154.4322 N.ar    1  UNL1       -0.2264
     13 C         140.2060  138.3226  155.4499 C.ar    1  UNL1        0.1597
     14 N         139.4591  139.5896  155.1549 N.pl3   1  UNL1       -0.3402
     15 C         140.9128  138.1569  156.7625 C.ar    1  UNL1        0.1696
     16 C         141.6597  136.8900  157.0574 C.ar    1  UNL1        0.0429
     17 H         138.9952  139.6984  154.2934 H       1  UNL1        0.1438
     18 H         139.4327  140.3124  155.8229 H       1  UNL1        0.1438
     19 C         145.2448  132.3809  157.9634 C.3     1  UNL1        0.1321
     20 N         144.0762  132.9554  157.2189 N.ar    1  UNL1       -0.3059
     21 C         143.1162  132.1890  156.3581 C.ar    1  UNL1        0.1786
     22 N         142.1091  133.1571  155.8116 N.ar    1  UNL1       -0.2238
     23 C         142.4468  134.5219  156.3346 C.ar    1  UNL1        0.1018
     24 C         143.6625  134.3972  157.2044 C.ar    1  UNL1        0.0965
     25 C         138.8563  137.7501  163.7436 C.3     1  UNL1        0.1116
     26 C         139.0882  138.5305  165.0035 C.ar    1  UNL1       -0.0129
     27 C         140.3081  139.3930  165.1378 C.ar    1  UNL1       -0.0007
     28 C         140.5399  140.1733  166.3977 C.ar    1  UNL1        0.0369
     29 C         139.5519  140.0911  167.5233 C.ar    1  UNL1        0.1468
     30 C         138.3319  139.2286  167.3891 C.ar    1  UNL1        0.0369
     31 C         138.1001  138.4482  166.1292 C.ar    1  UNL1       -0.0007
     32 O         139.7836  140.8714  168.7832 O.3     1  UNL1       -0.4045
     33 C         139.6891  140.1895  170.1159 C.3     1  UNL1        0.5753
     34 F         139.5945  139.5076  171.4485 F       1  UNL1       -0.1328
     35 F         138.3477  140.8210  170.3438 F       1  UNL1       -0.1328
     36 F         141.0304  139.5579  169.8879 F       1  UNL1       -0.1328
@<TRIPOS>BOND
     1    19    20    1
     2    20    21   ar
     3    21    22   ar
     4    22    23   ar
     5    23    10    1
     6    10    11   ar
     7    11    12   ar
     8    12    13   ar
     9    13    14    1
    10    13    15   ar
    11    15     9    1
    12     1     9    1
    13     1     2    1
    14     2     3    1
    15     3     4   am
    16     4     5    2
    17     4    25    1
    18    25    26    1
    19    26    27   ar
    20    27    28   ar
    21    28    29   ar
    22    29    32    1
    23    32    33    1
    24    33    34    1
    25    33    35    1
    26    33    36    1
    27    29    30   ar
    28    30    31   ar
    29     3     6    1
    30     6     7    1
    31     7     8    1
    32    15    16   ar
    33    23    24   ar
    34    24    20   ar
    35    16    10   ar
    36     7     1    1
    37    31    26   ar
    38    14    17    1
    39    14    18    1
@<TRIPOS>MOLECULE
*****
 36 39 0 0 0
SMALL
GASTEIGER

@<TRIPOS>ATOM
      1 C         140.4634  139.4264  160.3251 C.3     1  UNL1        0.2196
      2 C         139.3839  140.1597  161.0649 C.3     1  UNL1        0.1398
      3 N         139.2635  139.5524  162.4312 N.am    1  UNL1       -0.2725
      4 C         138.3062  139.9788  163.5043 C.2     1  UNL1        0.2303
      5 O         137.3541  141.1105  163.2535 O.2     1  UNL1       -0.2745
      6 C         140.2685  138.4437  162.5359 C.3     1  UNL1        0.1325
      7 C         141.0101  138.3659  161.2343 C.3     1  UNL1        0.2219
      8 F         142.1059  137.3975  160.9004 F       1  UNL1       -0.2315
      9 O         140.9165  139.7047  158.9226 O.3     1  UNL1       -0.4717
     10 C         141.0693  136.6750  156.3638 C.ar    1  UNL1        0.0415
     11 C         139.7985  136.8880  155.5960 C.ar    1  UNL1        0.1020
     12 N         138.9003  138.0399  155.9371 N.ar    1  UNL1       -0.2264
     13 C         139.2730  138.9788  157.0459 C.ar    1  UNL1        0.1597
     14 N         138.3748  140.1308  157.3870 N.pl3   1  UNL1       -0.3402
     15 C         140.5438  138.7658  157.8138 C.ar    1  UNL1        0.1696
     16 C         141.4420  137.6139  157.4727 C.ar    1  UNL1        0.0429
     17 H         137.5407  140.2706  156.8830 H       1  UNL1        0.1438
     18 H         138.6193  140.7470  158.1148 H       1  UNL1        0.1438
     19 C         142.9542  132.2512  154.1824 C.3     1  UNL1        0.1321
     20 N         142.8340  133.4897  155.0201 N.ar    1  UNL1       -0.3059
     21 C         143.8657  134.0112  155.9760 C.ar    1  UNL1        0.1786
     22 N         143.3302  135.2678  156.5957 N.ar    1  UNL1       -0.2238
     23 C         141.9676  135.5230  156.0228 C.ar    1  UNL1        0.1018
     24 C         141.6609  134.4241  155.0490 C.ar    1  UNL1        0.0965
     25 C         138.3010  139.2737  164.8282 C.3     1  UNL1        0.1116
     26 C         138.9629  139.9050  166.0170 C.ar    1  UNL1       -0.0129
     27 C         138.6985  139.3718  167.3938 C.ar    1  UNL1       -0.0007
     28 C         139.3604  140.0033  168.5826 C.ar    1  UNL1        0.0369
     29 C         140.2868  141.1679  168.3945 C.ar    1  UNL1        0.1468
     30 C         140.5512  141.7012  167.0176 C.ar    1  UNL1        0.0369
     31 C         139.8893  141.0698  165.8288 C.ar    1  UNL1       -0.0007
     32 O         140.9487  141.7993  169.5832 O.3     1  UNL1       -0.4045
     33 C         140.6474  143.2247  169.9402 C.3     1  UNL1        0.5753
     34 F         140.3462  144.6501  170.2972 F       1  UNL1       -0.1328
     35 F         142.0420  143.6169  169.5511 F       1  UNL1       -0.1328
     36 F         139.2529  142.8325  170.3292 F       1  UNL1       -0.1328
@<TRIPOS>BOND
     1    19    20    1
     2    20    21   ar
     3    21    22   ar
     4    22    23   ar
     5    23    10    1
     6    10    11   ar
     7    11    12   ar
     8    12    13   ar
     9    13    14    1
    10    13    15   ar
    11    15     9    1
    12     1     9    1
    13     1     2    1
    14     2     3    1
    15     3     4   am
    16     4     5    2
    17     4    25    1
    18    25    26    1
    19    26    27   ar
    20    27    28   ar
    21    28    29   ar
    22    29    32    1
    23    32    33    1
    24    33    34    1
    25    33    35    1
    26    33    36    1
    27    29    30   ar
    28    30    31   ar
    29     3     6    1
    30     6     7    1
    31     7     8    1
    32    15    16   ar
    33    23    24   ar
    34    24    20   ar
    35    16    10   ar
    36     7     1    1
    37    31    26   ar
    38    14    17    1
    39    14    18    1
@<TRIPOS>MOLECULE
*****
 36 39 0 0 0
SMALL
GASTEIGER

@<TRIPOS>ATOM
      1 C         141.3627  138.8019  160.0852 C.3     1  UNL1        0.2196
      2 C         140.1178  139.2774  160.7739 C.3     1  UNL1        0.1398
      3 N         140.0692  138.6443  162.1329 N.am    1  UNL1       -0.2725
      4 C         138.9945  138.8431  163.1602 C.2     1  UNL1        0.2303
      5 O         137.8330  139.7453  162.8656 O.2     1  UNL1       -0.2745
      6 C         141.2841  137.7775  162.2842 C.3     1  UNL1        0.1325
      7 C         142.0835  137.8749  161.0186 C.3     1  UNL1        0.2219
      8 F         143.3766  137.1692  160.7361 F       1  UNL1       -0.2315
      9 O         141.8085  139.1859  158.7055 O.3     1  UNL1       -0.4717
     10 C         142.2337  135.9725  156.4158 C.ar    1  UNL1        0.0415
     11 C         141.2972  136.3000  155.2909 C.ar    1  UNL1        0.1020
     12 N         140.5311  137.5895  155.3041 N.ar    1  UNL1       -0.2264
     13 C         140.7015  138.5515  156.4424 C.ar    1  UNL1        0.1597
     14 N         139.9353  139.8410  156.4556 N.pl3   1  UNL1       -0.3402
     15 C         141.6381  138.2240  157.5673 C.ar    1  UNL1        0.1696
     16 C         142.4042  136.9345  157.5540 C.ar    1  UNL1        0.0429
     17 H         139.3206  140.0560  155.7172 H       1  UNL1        0.1438
     18 H         140.0472  140.4724  157.2026 H       1  UNL1        0.1438
     19 C         145.1679  131.8585  157.9478 C.3     1  UNL1        0.1321
     20 N         144.3486  132.7920  157.1067 N.ar    1  UNL1       -0.3059
     21 C         144.0093  132.6052  155.6575 C.ar    1  UNL1        0.1786
     22 N         143.1757  133.7739  155.2224 N.ar    1  UNL1       -0.2238
     23 C         142.9999  134.6829  156.4026 C.ar    1  UNL1        0.1018
     24 C         143.7248  134.0760  157.5671 C.ar    1  UNL1        0.0965
     25 C         139.0813  138.1397  164.4822 C.3     1  UNL1        0.1116
     26 C         139.7216  138.8223  165.6544 C.ar    1  UNL1       -0.0129
     27 C         138.8686  139.3870  166.7514 C.ar    1  UNL1       -0.0007
     28 C         139.5089  140.0696  167.9236 C.ar    1  UNL1        0.0369
     29 C         141.0024  140.1874  167.9989 C.ar    1  UNL1        0.1468
     30 C         141.8556  139.6227  166.9019 C.ar    1  UNL1        0.0369
     31 C         141.2152  138.9401  165.7296 C.ar    1  UNL1       -0.0007
     32 O         141.6427  140.8699  169.1710 O.3     1  UNL1       -0.4045
     33 C         142.5712  140.1064  170.0681 C.3     1  UNL1        0.5753
     34 F         143.4997  139.3428  170.9653 F       1  UNL1       -0.1328
     35 F         141.5453  139.0207  170.2059 F       1  UNL1       -0.1328
     36 F         143.5971  141.1920  169.9304 F       1  UNL1       -0.1328
@<TRIPOS>BOND
     1    19    20    1
     2    20    21   ar
     3    21    22   ar
     4    22    23   ar
     5    23    10    1
     6    10    11   ar
     7    11    12   ar
     8    12    13   ar
     9    13    14    1
    10    13    15   ar
    11    15     9    1
    12     1     9    1
    13     1     2    1
    14     2     3    1
    15     3     4   am
    16     4     5    2
    17     4    25    1
    18    25    26    1
    19    26    27   ar
    20    27    28   ar
    21    28    29   ar
    22    29    32    1
    23    32    33    1
    24    33    34    1
    25    33    35    1
    26    33    36    1
    27    29    30   ar
    28    30    31   ar
    29     3     6    1
    30     6     7    1
    31     7     8    1
    32    15    16   ar
    33    23    24   ar
    34    24    20   ar
    35    16    10   ar
    36     7     1    1
    37    31    26   ar
    38    14    17    1
    39    14    18    1
@<TRIPOS>MOLECULE
*****
 36 39 0 0 0
SMALL
GASTEIGER

@<TRIPOS>ATOM
      1 C         143.8796  138.8889  162.2625 C.3     1  UNL1        0.2196
      2 C         144.1410  139.2233  160.8237 C.3     1  UNL1        0.1398
      3 N         143.0129  138.6674  160.0062 N.am    1  UNL1       -0.2725
      4 C         142.8688  138.7713  158.5168 C.2     1  UNL1        0.2303
      5 O         143.9136  139.4836  157.7101 O.2     1  UNL1       -0.2745
      6 C         142.0542  137.9895  160.9397 C.3     1  UNL1        0.1325
      7 C         142.5898  138.1264  162.3341 C.3     1  UNL1        0.2219
      8 F         141.9484  137.5941  163.5812 F       1  UNL1       -0.2315
      9 O         144.7543  139.2532  163.4253 O.3     1  UNL1       -0.4717
     10 C         143.0881  141.3492  166.3545 C.ar    1  UNL1        0.0415
     11 C         143.6446  142.7145  166.0782 C.ar    1  UNL1        0.1020
     12 N         144.5710  142.9259  164.9176 N.ar    1  UNL1       -0.2264
     13 C         144.9409  141.7722  164.0333 C.ar    1  UNL1        0.1597
     14 N         145.8673  141.9837  162.8727 N.pl3   1  UNL1       -0.3402
     15 C         144.3844  140.4069  164.3096 C.ar    1  UNL1        0.1696
     16 C         143.4580  140.1955  165.4702 C.ar    1  UNL1        0.0429
     17 H         146.2326  142.8798  162.6913 H       1  UNL1        0.1438
     18 H         146.1101  141.2265  162.2923 H       1  UNL1        0.1438
     19 C         139.7209  142.2489  170.3211 C.3     1  UNL1        0.1321
     20 N         140.6140  141.5512  169.3384 N.ar    1  UNL1       -0.3059
     21 C         140.8582  140.0731  169.2640 C.ar    1  UNL1        0.1786
     22 N         141.8148  139.8175  168.1372 N.ar    1  UNL1       -0.2238
     23 C         142.1617  141.1377  167.5152 C.ar    1  UNL1        0.1018
     24 C         141.4196  142.2092  168.2576 C.ar    1  UNL1        0.0965
     25 C         141.6798  138.1628  157.8342 C.3     1  UNL1        0.1116
     26 C         141.8492  136.9422  156.9789 C.ar    1  UNL1       -0.0129
     27 C         143.0091  136.0196  157.2098 C.ar    1  UNL1       -0.0007
     28 C         143.1784  134.7990  156.3545 C.ar    1  UNL1        0.0369
     29 C         142.1878  134.5010  155.2683 C.ar    1  UNL1        0.1468
     30 C         141.0278  135.4236  155.0374 C.ar    1  UNL1        0.0369
     31 C         140.8585  136.6442  155.8927 C.ar    1  UNL1       -0.0007
     32 O         142.3571  133.2805  154.4131 O.3     1  UNL1       -0.4045
     33 C         142.4964  131.9305  155.0519 C.3     1  UNL1        0.5753
     34 F         142.6356  130.5805  155.6907 F       1  UNL1       -0.1328
     35 F         143.9736  131.9606  154.7936 F       1  UNL1       -0.1328
     36 F         141.0191  131.9003  155.3102 F       1  UNL1       -0.1328
@<TRIPOS>BOND
     1    19    20    1
     2    20    21   ar
     3    21    22   ar
     4    22    23   ar
     5    23    10    1
     6    10    11   ar
     7    11    12   ar
     8    12    13   ar
     9    13    14    1
    10    13    15   ar
    11    15     9    1
    12     1     9    1
    13     1     2    1
    14     2     3    1
    15     3     4   am
    16     4     5    2
    17     4    25    1
    18    25    26    1
    19    26    27   ar
    20    27    28   ar
    21    28    29   ar
    22    29    32    1
    23    32    33    1
    24    33    34    1
    25    33    35    1
    26    33    36    1
    27    29    30   ar
    28    30    31   ar
    29     3     6    1
    30     6     7    1
    31     7     8    1
    32    15    16   ar
    33    23    24   ar
    34    24    20   ar
    35    16    10   ar
    36     7     1    1
    37    31    26   ar
    38    14    17    1
    39    14    18    1
@<TRIPOS>MOLECULE
*****
 36 39 0 0 0
SMALL
GASTEIGER

@<TRIPOS>ATOM
      1 C         143.3061  138.9314  160.2262 C.3     1  UNL1        0.2196
      2 C         144.1471  139.1757  161.4441 C.3     1  UNL1        0.1398
      3 N         143.2979  138.9172  162.6533 N.am    1  UNL1       -0.2725
      4 C         143.7374  139.0410  164.0821 C.2     1  UNL1        0.2303
      5 O         145.1427  139.4574  164.4011 O.2     1  UNL1       -0.2745
      6 C         141.9321  138.5132  162.1829 C.3     1  UNL1        0.1325
      7 C         141.9371  138.5220  160.6828 C.3     1  UNL1        0.2219
      8 F         140.7769  138.1812  159.7952 F       1  UNL1       -0.2315
      9 O         143.7551  139.0719  158.8020 O.3     1  UNL1       -0.4717
     10 C         142.6626  142.7972  157.9786 C.ar    1  UNL1        0.0415
     11 C         143.4526  143.0549  156.7298 C.ar    1  UNL1        0.1020
     12 N         144.3435  141.9850  156.1718 N.ar    1  UNL1       -0.2264
     13 C         144.4443  140.6573  156.8625 C.ar    1  UNL1        0.1597
     14 N         145.3353  139.5873  156.3045 N.pl3   1  UNL1       -0.3402
     15 C         143.6543  140.3996  158.1113 C.ar    1  UNL1        0.1696
     16 C         142.7634  141.4696  158.6693 C.ar    1  UNL1        0.0429
     17 H         145.8538  139.7564  155.4849 H       1  UNL1        0.1438
     18 H         145.4015  138.7159  156.7578 H       1  UNL1        0.1438
     19 C         140.0401  145.8896  161.3610 C.3     1  UNL1        0.1321
     20 N         140.5662  145.2886  160.0914 N.ar    1  UNL1       -0.3059
     21 C         140.2351  145.7389  158.6993 C.ar    1  UNL1        0.1786
     22 N         140.9801  144.8605  157.7385 N.ar    1  UNL1       -0.2238
     23 C         141.7716  143.8673  158.5366 C.ar    1  UNL1        0.1018
     24 C         141.5158  144.1319  159.9908 C.ar    1  UNL1        0.0965
     25 C         142.7717  138.7484  165.1919 C.3     1  UNL1        0.1116
     26 C         142.5604  139.7519  166.2865 C.ar    1  UNL1       -0.0129
     27 C         142.7986  139.3642  167.7158 C.ar    1  UNL1       -0.0007
     28 C         142.5873  140.3678  168.8104 C.ar    1  UNL1        0.0369
     29 C         142.1379  141.7592  168.4757 C.ar    1  UNL1        0.1468
     30 C         141.8997  142.1470  167.0463 C.ar    1  UNL1        0.0369
     31 C         142.1110  141.1434  165.9517 C.ar    1  UNL1       -0.0007
     32 O         141.9266  142.7628  169.5702 O.3     1  UNL1       -0.4045
     33 C         140.5764  142.9037  170.2082 C.3     1  UNL1        0.5753
     34 F         139.2262  143.0445  170.8463 F       1  UNL1       -0.1328
     35 F         140.9137  141.7995  171.1658 F       1  UNL1       -0.1328
     36 F         140.2391  144.0078  169.2506 F       1  UNL1       -0.1328
@<TRIPOS>BOND
     1    19    20    1
     2    20    21   ar
     3    21    22   ar
     4    22    23   ar
     5    23    10    1
     6    10    11   ar
     7    11    12   ar
     8    12    13   ar
     9    13    14    1
    10    13    15   ar
    11    15     9    1
    12     1     9    1
    13     1     2    1
    14     2     3    1
    15     3     4   am
    16     4     5    2
    17     4    25    1
    18    25    26    1
    19    26    27   ar
    20    27    28   ar
    21    28    29   ar
    22    29    32    1
    23    32    33    1
    24    33    34    1
    25    33    35    1
    26    33    36    1
    27    29    30   ar
    28    30    31   ar
    29     3     6    1
    30     6     7    1
    31     7     8    1
    32    15    16   ar
    33    23    24   ar
    34    24    20   ar
    35    16    10   ar
    36     7     1    1
    37    31    26   ar
    38    14    17    1
    39    14    18    1
