@<TRIPOS>MOLECULE
*****
 24 26 0 0 0
SMALL
GASTEIGER

@<TRIPOS>ATOM
      1 C         140.0669  139.5754  166.6613 C.ar    1  UNL1       -0.0050
      2 C         138.8169  138.9005  166.1798 C.ar    1  UNL1       -0.0028
      3 C         138.8621  138.0113  164.9727 C.ar    1  UNL1        0.0029
      4 C         140.1573  137.7970  164.2470 C.ar    1  UNL1        0.0375
      5 C         141.4073  138.4720  164.7285 C.ar    1  UNL1        0.1450
      6 C         141.3621  139.3612  165.9356 C.ar    1  UNL1        0.0345
      7 C         140.4466  142.2958  169.4037 C.3     1  UNL1        0.1315
      8 C         139.4579  141.3702  170.0486 C.3     1  UNL1        0.0268
      9 C         139.1953  140.2385  169.0997 C.3     1  UNL1        0.0221
     10 C         140.0217  140.4647  167.8685 C.3     1  UNL1        0.0773
     11 N         140.7950  141.7362  168.0564 N.3     1  UNL1       -0.2890
     12 H         140.5439  142.4049  167.3283 H       1  UNL1        0.1239
     13 N         140.0837  144.7308  170.2341 N.am    1  UNL1       -0.3277
     14 C         140.9912  143.5593  170.0013 C.2     1  UNL1        0.2336
     15 O         142.4432  143.6513  170.3663 O.2     1  UNL1       -0.2739
     16 H         140.4412  145.5600  170.6263 H       1  UNL1        0.1450
     17 H         139.1307  144.6704  169.9946 H       1  UNL1        0.1450
     18 O         142.7025  138.2578  164.0028 O.3     1  UNL1       -0.4535
     19 C         143.5380  139.4353  163.5962 C.ar    1  UNL1        0.1453
     20 C         143.1325  140.2721  162.4192 C.ar    1  UNL1        0.0375
     21 C         143.9680  141.4495  162.0126 C.ar    1  UNL1        0.0031
     22 C         145.2091  141.7903  162.7830 C.ar    1  UNL1        0.0002
     23 C         145.6147  140.9536  163.9600 C.ar    1  UNL1        0.0031
     24 C         144.7791  139.7761  164.3666 C.ar    1  UNL1        0.0375
@<TRIPOS>BOND
     1    13    14   am
     2    14    15    2
     3     7    14    1
     4     7     8    1
     5     8     9    1
     6     9    10    1
     7    10     1    1
     8     1     2   ar
     9     2     3   ar
    10     3     4   ar
    11     4     5   ar
    12     5    18    1
    13    18    19    1
    14    19    20   ar
    15    20    21   ar
    16    21    22   ar
    17    22    23   ar
    18    23    24   ar
    19     5     6   ar
    20    10    11    1
    21    11     7    1
    22     6     1   ar
    23    24    19   ar
    24    13    16    1
    25    13    17    1
    26    11    12    1
@<TRIPOS>MOLECULE
*****
 24 26 0 0 0
SMALL
GASTEIGER

@<TRIPOS>ATOM
      1 C         139.8302  142.8076  166.0636 C.ar    1  UNL1       -0.0050
      2 C         139.4170  144.1719  165.5970 C.ar    1  UNL1       -0.0028
      3 C         138.3565  144.3158  164.5459 C.ar    1  UNL1        0.0029
      4 C         137.7093  143.0953  163.9615 C.ar    1  UNL1        0.0375
      5 C         138.1225  141.7310  164.4281 C.ar    1  UNL1        0.1450
      6 C         139.1830  141.5871  165.4791 C.ar    1  UNL1        0.0345
      7 C         142.0465  142.7050  169.2484 C.3     1  UNL1        0.1315
      8 C         142.9988  142.1792  168.2155 C.3     1  UNL1        0.0268
      9 C         142.2845  142.1537  166.8968 C.3     1  UNL1        0.0221
     10 C         140.8907  142.6636  167.1146 C.3     1  UNL1        0.0773
     11 N         140.7436  143.0043  168.5680 N.3     1  UNL1       -0.2890
     12 H         139.9999  142.4422  168.9818 H       1  UNL1        0.1239
     13 N         143.3805  143.8944  171.1341 N.am    1  UNL1       -0.3277
     14 C         142.3447  142.8976  170.7058 C.2     1  UNL1        0.2336
     15 O         141.6071  142.0933  171.7350 O.2     1  UNL1       -0.2739
     16 H         143.5762  144.0208  172.0906 H       1  UNL1        0.1450
     17 H         143.8646  144.4223  170.4586 H       1  UNL1        0.1450
     18 O         137.4753  140.5105  163.8437 O.3     1  UNL1       -0.4535
     19 C         138.1186  139.8001  162.6898 C.ar    1  UNL1        0.1453
     20 C         139.0346  138.6390  162.9404 C.ar    1  UNL1        0.0375
     21 C         139.6779  137.9286  161.7865 C.ar    1  UNL1        0.0031
     22 C         139.4052  138.3792  160.3821 C.ar    1  UNL1        0.0002
     23 C         138.4892  139.5403  160.1315 C.ar    1  UNL1        0.0031
     24 C         137.8459  140.2508  161.2854 C.ar    1  UNL1        0.0375
@<TRIPOS>BOND
     1    13    14   am
     2    14    15    2
     3     7    14    1
     4     7     8    1
     5     8     9    1
     6     9    10    1
     7    10     1    1
     8     1     2   ar
     9     2     3   ar
    10     3     4   ar
    11     4     5   ar
    12     5    18    1
    13    18    19    1
    14    19    20   ar
    15    20    21   ar
    16    21    22   ar
    17    22    23   ar
    18    23    24   ar
    19     5     6   ar
    20    10    11    1
    21    11     7    1
    22     6     1   ar
    23    24    19   ar
    24    13    16    1
    25    13    17    1
    26    11    12    1
@<TRIPOS>MOLECULE
*****
 24 26 0 0 0
SMALL
GASTEIGER

@<TRIPOS>ATOM
      1 C         139.2387  139.3487  165.1103 C.ar    1  UNL1       -0.0050
      2 C         139.2896  137.9697  164.5224 C.ar    1  UNL1       -0.0028
      3 C         138.7082  137.7116  163.1640 C.ar    1  UNL1        0.0029
      4 C         138.0758  138.8325  162.3936 C.ar    1  UNL1        0.0375
      5 C         138.0248  140.2115  162.9815 C.ar    1  UNL1        0.1450
      6 C         138.6063  140.4696  164.3398 C.ar    1  UNL1        0.0345
      7 C         140.0244  140.0924  168.8380 C.3     1  UNL1        0.1315
      8 C         141.4057  139.9158  168.2803 C.3     1  UNL1        0.0268
      9 C         141.2794  139.6157  166.8160 C.3     1  UNL1        0.0221
     10 C         139.8202  139.6069  166.4688 C.3     1  UNL1        0.0773
     11 N         139.0445  139.9015  167.7184 N.3     1  UNL1       -0.2890
     12 H         138.4227  139.1216  167.9318 H       1  UNL1        0.1239
     13 N         139.7775  139.3340  171.3106 N.am    1  UNL1       -0.3277
     14 C         139.6829  140.4051  170.2647 C.2     1  UNL1        0.2336
     15 O         139.2469  141.7889  170.6457 O.2     1  UNL1       -0.2739
     16 H         139.5534  139.5393  172.2470 H       1  UNL1        0.1450
     17 H         140.0637  138.4258  171.0606 H       1  UNL1        0.1450
     18 O         137.3925  141.3325  162.2110 O.3     1  UNL1       -0.4535
     19 C         138.1416  142.6150  162.0019 C.ar    1  UNL1        0.1453
     20 C         137.9092  143.7777  162.9207 C.ar    1  UNL1        0.0375
     21 C         138.6584  145.0603  162.7115 C.ar    1  UNL1        0.0031
     22 C         139.6400  145.1802  161.5836 C.ar    1  UNL1        0.0002
     23 C         139.8723  144.0176  160.6649 C.ar    1  UNL1        0.0031
     24 C         139.1232  142.7349  160.8740 C.ar    1  UNL1        0.0375
@<TRIPOS>BOND
     1    13    14   am
     2    14    15    2
     3     7    14    1
     4     7     8    1
     5     8     9    1
     6     9    10    1
     7    10     1    1
     8     1     2   ar
     9     2     3   ar
    10     3     4   ar
    11     4     5   ar
    12     5    18    1
    13    18    19    1
    14    19    20   ar
    15    20    21   ar
    16    21    22   ar
    17    22    23   ar
    18    23    24   ar
    19     5     6   ar
    20    10    11    1
    21    11     7    1
    22     6     1   ar
    23    24    19   ar
    24    13    16    1
    25    13    17    1
    26    11    12    1
@<TRIPOS>MOLECULE
*****
 24 26 0 0 0
SMALL
GASTEIGER

@<TRIPOS>ATOM
      1 C         140.4687  139.7053  166.7535 C.ar    1  UNL1       -0.0050
      2 C         139.0173  139.5281  167.0882 C.ar    1  UNL1       -0.0028
      3 C         138.1807  138.5583  166.3075 C.ar    1  UNL1        0.0029
      4 C         138.7954  137.7658  165.1921 C.ar    1  UNL1        0.0375
      5 C         140.2468  137.9430  164.8574 C.ar    1  UNL1        0.1450
      6 C         141.0834  138.9128  165.6381 C.ar    1  UNL1        0.0345
      7 C         142.1763  142.0363  169.3451 C.3     1  UNL1        0.1315
      8 C         143.0099  142.2986  168.1258 C.3     1  UNL1        0.0268
      9 C         142.4717  141.4573  167.0067 C.3     1  UNL1        0.0221
     10 C         141.3055  140.6751  167.5342 C.3     1  UNL1        0.0773
     11 N         141.1230  141.0329  168.9794 N.3     1  UNL1       -0.2890
     12 H         141.2237  140.1989  169.5579 H       1  UNL1        0.1239
     13 N         143.4659  143.6602  170.9102 N.am    1  UNL1       -0.3277
     14 C         142.3633  142.6667  170.6933 C.2     1  UNL1        0.2336
     15 O         141.4477  142.3036  171.8245 O.2     1  UNL1       -0.2739
     16 H         143.5887  144.0740  171.7951 H       1  UNL1        0.1450
     17 H         144.0669  143.8986  170.1677 H       1  UNL1        0.1450
     18 O         140.8615  137.1505  163.7421 O.3     1  UNL1       -0.4535
     19 C         140.8445  137.6883  162.3419 C.ar    1  UNL1        0.1453
     20 C         142.1332  137.8995  161.6040 C.ar    1  UNL1        0.0375
     21 C         142.1162  138.4373  160.2038 C.ar    1  UNL1        0.0031
     22 C         140.8106  138.7639  159.5416 C.ar    1  UNL1        0.0002
     23 C         139.5219  138.5526  160.2795 C.ar    1  UNL1        0.0031
     24 C         139.5388  138.0148  161.6797 C.ar    1  UNL1        0.0375
@<TRIPOS>BOND
     1    13    14   am
     2    14    15    2
     3     7    14    1
     4     7     8    1
     5     8     9    1
     6     9    10    1
     7    10     1    1
     8     1     2   ar
     9     2     3   ar
    10     3     4   ar
    11     4     5   ar
    12     5    18    1
    13    18    19    1
    14    19    20   ar
    15    20    21   ar
    16    21    22   ar
    17    22    23   ar
    18    23    24   ar
    19     5     6   ar
    20    10    11    1
    21    11     7    1
    22     6     1   ar
    23    24    19   ar
    24    13    16    1
    25    13    17    1
    26    11    12    1
@<TRIPOS>MOLECULE
*****
 24 26 0 0 0
SMALL
GASTEIGER

@<TRIPOS>ATOM
      1 C         139.7320  140.0405  166.0733 C.ar    1  UNL1       -0.0050
      2 C         139.0817  138.7639  165.6289 C.ar    1  UNL1       -0.0028
      3 C         139.1614  138.3425  164.1916 C.ar    1  UNL1        0.0029
      4 C         139.8915  139.1975  163.1986 C.ar    1  UNL1        0.0375
      5 C         140.5418  140.4741  163.6430 C.ar    1  UNL1        0.1450
      6 C         140.4620  140.8955  165.0804 C.ar    1  UNL1        0.0345
      7 C         139.9646  141.7029  169.5730 C.3     1  UNL1        0.1315
      8 C         139.0945  140.5182  169.8721 C.3     1  UNL1        0.0268
      9 C         138.9015  139.7513  168.5976 C.3     1  UNL1        0.0221
     10 C         139.6522  140.4620  167.5107 C.3     1  UNL1        0.0773
     11 N         140.3093  141.6682  168.1135 N.3     1  UNL1       -0.2890
     12 H         139.9668  142.5134  167.6568 H       1  UNL1        0.1239
     13 N         140.1321  144.1912  170.3014 N.am    1  UNL1       -0.3277
     14 C         140.4115  142.7403  170.5600 C.2     1  UNL1        0.2336
     15 O         141.1377  142.3268  171.8056 O.2     1  UNL1       -0.2739
     16 H         140.4254  144.8720  170.9492 H       1  UNL1        0.1450
     17 H         139.6555  144.4626  169.4839 H       1  UNL1        0.1450
     18 O         141.2718  141.3291  162.6501 O.3     1  UNL1       -0.4535
     19 C         141.9688  142.5772  163.1044 C.ar    1  UNL1        0.1453
     20 C         141.2374  143.8868  163.1051 C.ar    1  UNL1        0.0375
     21 C         141.9344  145.1349  163.5594 C.ar    1  UNL1        0.0031
     22 C         143.3628  145.0735  164.0129 C.ar    1  UNL1        0.0002
     23 C         144.0943  143.7640  164.0122 C.ar    1  UNL1        0.0031
     24 C         143.3973  142.5158  163.5579 C.ar    1  UNL1        0.0375
@<TRIPOS>BOND
     1    13    14   am
     2    14    15    2
     3     7    14    1
     4     7     8    1
     5     8     9    1
     6     9    10    1
     7    10     1    1
     8     1     2   ar
     9     2     3   ar
    10     3     4   ar
    11     4     5   ar
    12     5    18    1
    13    18    19    1
    14    19    20   ar
    15    20    21   ar
    16    21    22   ar
    17    22    23   ar
    18    23    24   ar
    19     5     6   ar
    20    10    11    1
    21    11     7    1
    22     6     1   ar
    23    24    19   ar
    24    13    16    1
    25    13    17    1
    26    11    12    1
@<TRIPOS>MOLECULE
*****
 24 26 0 0 0
SMALL
GASTEIGER

@<TRIPOS>ATOM
      1 C         140.0632  139.2582  166.2079 C.ar    1  UNL1       -0.0050
      2 C         138.8680  138.4681  165.7638 C.ar    1  UNL1       -0.0028
      3 C         138.7628  138.0028  164.3417 C.ar    1  UNL1        0.0029
      4 C         139.8528  138.3276  163.3637 C.ar    1  UNL1        0.0375
      5 C         141.0479  139.1178  163.8078 C.ar    1  UNL1        0.1450
      6 C         141.1531  139.5830  165.2298 C.ar    1  UNL1        0.0345
      7 C         141.0784  140.4123  169.7720 C.3     1  UNL1        0.1315
      8 C         139.5822  140.4669  169.8649 C.3     1  UNL1        0.0268
      9 C         139.0199  140.0412  168.5410 C.3     1  UNL1        0.0221
     10 C         140.1684  139.7235  167.6300 C.3     1  UNL1        0.0773
     11 N         141.4407  139.9529  168.3908 N.3     1  UNL1       -0.2890
     12 H         141.9992  140.6673  167.9238 H       1  UNL1        0.1239
     13 N         143.2814  139.9333  171.0632 N.am    1  UNL1       -0.3277
     14 C         142.0430  140.7567  170.8679 C.2     1  UNL1        0.2336
     15 O         141.7690  141.9245  171.7686 O.2     1  UNL1       -0.2739
     16 H         143.9145  140.1594  171.7825 H       1  UNL1        0.1450
     17 H         143.4613  139.1669  170.4721 H       1  UNL1        0.1450
     18 O         142.1378  139.4426  162.8297 O.3     1  UNL1       -0.4535
     19 C         143.2049  140.4308  163.1969 C.ar    1  UNL1        0.1453
     20 C         142.9344  141.9022  163.0868 C.ar    1  UNL1        0.0375
     21 C         144.0015  142.8904  163.4540 C.ar    1  UNL1        0.0031
     22 C         145.3390  142.4073  163.9311 C.ar    1  UNL1        0.0002
     23 C         145.6095  140.9360  164.0411 C.ar    1  UNL1        0.0031
     24 C         144.5424  139.9477  163.6740 C.ar    1  UNL1        0.0375
@<TRIPOS>BOND
     1    13    14   am
     2    14    15    2
     3     7    14    1
     4     7     8    1
     5     8     9    1
     6     9    10    1
     7    10     1    1
     8     1     2   ar
     9     2     3   ar
    10     3     4   ar
    11     4     5   ar
    12     5    18    1
    13    18    19    1
    14    19    20   ar
    15    20    21   ar
    16    21    22   ar
    17    22    23   ar
    18    23    24   ar
    19     5     6   ar
    20    10    11    1
    21    11     7    1
    22     6     1   ar
    23    24    19   ar
    24    13    16    1
    25    13    17    1
    26    11    12    1
@<TRIPOS>MOLECULE
*****
 24 26 0 0 0
SMALL
GASTEIGER

@<TRIPOS>ATOM
      1 C         139.6698  142.5193  165.7634 C.ar    1  UNL1       -0.0050
      2 C         139.5121  144.0101  165.7155 C.ar    1  UNL1       -0.0028
      3 C         138.5529  144.6320  164.7443 C.ar    1  UNL1        0.0029
      4 C         137.7515  143.7630  163.8210 C.ar    1  UNL1        0.0375
      5 C         137.9093  142.2721  163.8688 C.ar    1  UNL1        0.1450
      6 C         138.8684  141.6502  164.8400 C.ar    1  UNL1        0.0345
      7 C         141.5486  140.5253  168.5130 C.3     1  UNL1        0.1315
      8 C         142.6616  141.3553  167.9452 C.3     1  UNL1        0.0268
      9 C         142.0933  142.2032  166.8461 C.3     1  UNL1        0.0221
     10 C         140.6290  141.8973  166.7346 C.3     1  UNL1        0.0773
     11 N         140.2924  140.8603  167.7648 N.3     1  UNL1       -0.2890
     12 H         139.9281  140.0242  167.3081 H       1  UNL1        0.1239
     13 N         140.6049  139.4577  170.6855 N.am    1  UNL1       -0.3277
     14 C         141.6703  139.5343  169.6324 C.2     1  UNL1        0.2336
     15 O         142.8576  138.6200  169.6988 O.2     1  UNL1       -0.2739
     16 H         140.6848  138.8073  171.4202 H       1  UNL1        0.1450
     17 H         139.8257  140.0578  170.6419 H       1  UNL1        0.1450
     18 O         137.1079  141.4031  162.9455 O.3     1  UNL1       -0.4535
     19 C         137.8049  140.4702  162.0001 C.ar    1  UNL1        0.1453
     20 C         138.2196  140.9512  160.6412 C.ar    1  UNL1        0.0375
     21 C         138.9167  140.0183  159.6958 C.ar    1  UNL1        0.0031
     22 C         139.1990  138.6043  160.1093 C.ar    1  UNL1        0.0002
     23 C         138.7843  138.1233  161.4682 C.ar    1  UNL1        0.0031
     24 C         138.0873  139.0562  162.4136 C.ar    1  UNL1        0.0375
@<TRIPOS>BOND
     1    13    14   am
     2    14    15    2
     3     7    14    1
     4     7     8    1
     5     8     9    1
     6     9    10    1
     7    10     1    1
     8     1     2   ar
     9     2     3   ar
    10     3     4   ar
    11     4     5   ar
    12     5    18    1
    13    18    19    1
    14    19    20   ar
    15    20    21   ar
    16    21    22   ar
    17    22    23   ar
    18    23    24   ar
    19     5     6   ar
    20    10    11    1
    21    11     7    1
    22     6     1   ar
    23    24    19   ar
    24    13    16    1
    25    13    17    1
    26    11    12    1
@<TRIPOS>MOLECULE
*****
 24 26 0 0 0
SMALL
GASTEIGER

@<TRIPOS>ATOM
      1 C         142.7643  140.1653  166.1063 C.ar    1  UNL1       -0.0050
      2 C         143.5658  138.9285  165.8274 C.ar    1  UNL1       -0.0028
      3 C         144.6681  138.9626  164.8106 C.ar    1  UNL1        0.0029
      4 C         144.9687  140.2335  164.0727 C.ar    1  UNL1        0.0375
      5 C         144.1672  141.4703  164.3517 C.ar    1  UNL1        0.1450
      6 C         143.0649  141.4362  165.3684 C.ar    1  UNL1        0.0345
      7 C         140.4664  140.1931  169.2344 C.3     1  UNL1        0.1315
      8 C         139.4651  139.9644  168.1412 C.3     1  UNL1        0.0268
      9 C         140.2040  139.9262  166.8364 C.3     1  UNL1        0.0221
     10 C         141.6620  140.1312  167.1231 C.3     1  UNL1        0.0773
     11 N         141.8242  140.2962  168.6052 N.3     1  UNL1       -0.2890
     12 H         142.2319  141.2086  168.8093 H       1  UNL1        0.1239
     13 N         139.7310  139.0855  171.4665 N.am    1  UNL1       -0.3277
     14 C         140.1632  140.3000  170.6995 C.2     1  UNL1        0.2336
     15 O         140.2923  141.6213  171.3977 O.2     1  UNL1       -0.2739
     16 H         139.5320  139.1557  172.4281 H       1  UNL1        0.1450
     17 H         139.6463  138.2183  171.0083 H       1  UNL1        0.1450
     18 O         144.4678  142.7412  163.6138 O.3     1  UNL1       -0.4535
     19 C         143.3471  143.5687  163.0579 C.ar    1  UNL1        0.1453
     20 C         142.7172  144.6397  163.8983 C.ar    1  UNL1        0.0375
     21 C         141.5965  145.4673  163.3424 C.ar    1  UNL1        0.0031
     22 C         141.1056  145.2240  161.9461 C.ar    1  UNL1        0.0002
     23 C         141.7354  144.1530  161.1056 C.ar    1  UNL1        0.0031
     24 C         142.8562  143.3254  161.6615 C.ar    1  UNL1        0.0375
@<TRIPOS>BOND
     1    13    14   am
     2    14    15    2
     3     7    14    1
     4     7     8    1
     5     8     9    1
     6     9    10    1
     7    10     1    1
     8     1     2   ar
     9     2     3   ar
    10     3     4   ar
    11     4     5   ar
    12     5    18    1
    13    18    19    1
    14    19    20   ar
    15    20    21   ar
    16    21    22   ar
    17    22    23   ar
    18    23    24   ar
    19     5     6   ar
    20    10    11    1
    21    11     7    1
    22     6     1   ar
    23    24    19   ar
    24    13    16    1
    25    13    17    1
    26    11    12    1
@<TRIPOS>MOLECULE
*****
 24 26 0 0 0
SMALL
GASTEIGER

@<TRIPOS>ATOM
      1 C         142.6798  142.1980  166.0541 C.ar    1  UNL1       -0.0050
      2 C         143.9953  142.9035  165.9066 C.ar    1  UNL1       -0.0028
      3 C         144.7119  142.8863  164.5890 C.ar    1  UNL1        0.0029
      4 C         144.1130  142.1636  163.4189 C.ar    1  UNL1        0.0375
      5 C         142.7976  141.4581  163.5664 C.ar    1  UNL1        0.1450
      6 C         142.0810  141.4753  164.8840 C.ar    1  UNL1        0.0345
      7 C         141.4392  141.8879  169.7188 C.3     1  UNL1        0.1315
      8 C         140.2812  142.5955  169.0798 C.3     1  UNL1        0.0268
      9 C         140.6050  142.7978  167.6292 C.3     1  UNL1        0.0221
     10 C         141.9631  142.2152  167.3718 C.3     1  UNL1        0.0773
     11 N         142.4786  141.6529  168.6632 N.3     1  UNL1       -0.2890
     12 H         143.3471  142.1208  168.9224 H       1  UNL1        0.1239
     13 N         142.5539  140.4653  171.5853 N.am    1  UNL1       -0.3277
     14 C         141.5400  141.4858  171.1605 C.2     1  UNL1        0.2336
     15 O         140.6270  142.1044  172.1772 O.2     1  UNL1       -0.2739
     16 H         142.6200  140.2014  172.5315 H       1  UNL1        0.1450
     17 H         143.1531  140.0593  170.9180 H       1  UNL1        0.1450
     18 O         142.1987  140.7355  162.3963 O.3     1  UNL1       -0.4535
     19 C         141.1278  139.7087  162.6171 C.ar    1  UNL1        0.1453
     20 C         139.6895  140.0620  162.3787 C.ar    1  UNL1        0.0375
     21 C         138.6185  139.0353  162.5995 C.ar    1  UNL1        0.0031
     22 C         138.9857  137.6553  163.0587 C.ar    1  UNL1        0.0002
     23 C         140.4238  137.3020  163.2971 C.ar    1  UNL1        0.0031
     24 C         141.4949  138.3288  163.0763 C.ar    1  UNL1        0.0375
@<TRIPOS>BOND
     1    13    14   am
     2    14    15    2
     3     7    14    1
     4     7     8    1
     5     8     9    1
     6     9    10    1
     7    10     1    1
     8     1     2   ar
     9     2     3   ar
    10     3     4   ar
    11     4     5   ar
    12     5    18    1
    13    18    19    1
    14    19    20   ar
    15    20    21   ar
    16    21    22   ar
    17    22    23   ar
    18    23    24   ar
    19     5     6   ar
    20    10    11    1
    21    11     7    1
    22     6     1   ar
    23    24    19   ar
    24    13    16    1
    25    13    17    1
    26    11    12    1
