@<TRIPOS>MOLECULE
*****
 32 35 0 0 0
SMALL
GASTEIGER

@<TRIPOS>ATOM
      1 C         142.9941  140.4230  165.4503 C.2     1  UNL1        0.2525
      2 O         144.0218  139.3305  165.4355 O.2     1  UNL1       -0.2698
      3 N         142.7199  141.2117  164.2041 N.am    1  UNL1       -0.2660
      4 C         141.7267  142.3275  164.0675 C.3     1  UNL1        0.1236
      5 C         141.7839  142.8284  162.6548 C.ar    1  UNL1        0.0338
      6 C         141.2054  143.8276  161.6972 C.ar    1  UNL1        0.0991
      7 N         141.8763  143.6390  160.3689 N.ar    1  UNL1       -0.2265
      8 N         142.8695  142.5232  160.5056 N.ar    1  UNL1       -0.1679
      9 C         142.8124  142.0223  161.9183 C.ar    1  UNL1        0.0981
     10 C         143.3909  141.0231  162.8759 C.3     1  UNL1        0.1414
     11 C         141.6022  144.4276  159.1228 C.ar    1  UNL1        0.1102
     12 C         140.3824  145.2965  159.0382 C.ar    1  UNL1        0.0214
     13 C         140.1083  146.0852  157.7921 C.ar    1  UNL1        0.0017
     14 C         141.0540  146.0050  156.6305 C.ar    1  UNL1        0.0024
     15 C         142.2738  145.1361  156.7151 C.ar    1  UNL1        0.0312
     16 C         142.5479  144.3475  157.9612 C.ar    1  UNL1        0.1577
     17 F         143.7677  143.4787  158.0458 F       1  UNL1       -0.2026
     18 C         140.9041  140.0917  166.9577 C.ar    1  UNL1        0.1431
     19 C         140.1505  140.3955  168.2186 C.ar    1  UNL1        0.0377
     20 C         140.7333  141.3344  169.2329 C.ar    1  UNL1        0.0134
     21 C         142.0696  141.9696  168.9863 C.ar    1  UNL1        0.0688
     22 C         142.8232  141.6657  167.7254 C.ar    1  UNL1        0.0178
     23 C         142.2404  140.7268  166.7111 C.ar    1  UNL1        0.0881
     24 C         142.6523  142.9085  170.0006 C.1     1  UNL1        0.1004
     25 N         143.2350  143.8475  171.0149 N.1     1  UNL1       -0.1908
     26 O         140.3214  139.1527  165.9434 O.3     1  UNL1       -0.4702
     27 C         138.1075  140.1441  165.0129 C.3     1  UNL1        0.0566
     28 C         138.8342  139.0694  165.7657 C.3     1  UNL1        0.2599
     29 C         138.0740  137.9114  166.3410 C.3     1  UNL1        0.4340
     30 F         137.3137  136.7533  166.9161 F       1  UNL1       -0.1664
     31 F         138.8129  136.9746  165.4318 F       1  UNL1       -0.1664
     32 F         137.3350  138.8481  167.2502 F       1  UNL1       -0.1664
@<TRIPOS>BOND
     1    28    27    1
     2    28    26    1
     3    26    18    1
     4    18    19   ar
     5    19    20   ar
     6    20    21   ar
     7    21    24    1
     8    24    25    3
     9    21    22   ar
    10    22    23   ar
    11    23     1    1
    12     1     2    2
    13     1     3   am
    14     3     4    1
    15     4     5    1
    16     5     6   ar
    17     6     7   ar
    18     7    11    1
    19    11    12   ar
    20    12    13   ar
    21    13    14   ar
    22    14    15   ar
    23    15    16   ar
    24    16    17    1
    25     7     8   ar
    26     8     9   ar
    27     9    10    1
    28    28    29    1
    29    29    30    1
    30    29    31    1
    31    29    32    1
    32    23    18   ar
    33    10     3    1
    34     9     5   ar
    35    16    11   ar
@<TRIPOS>MOLECULE
*****
 32 35 0 0 0
SMALL
GASTEIGER

@<TRIPOS>ATOM
      1 C         143.1721  139.2618  166.3712 C.2     1  UNL1        0.2525
      2 O         143.9546  138.1288  166.9662 O.2     1  UNL1       -0.2698
      3 N         143.2737  139.5542  164.9035 N.am    1  UNL1       -0.2660
      4 C         142.5550  140.6479  164.1706 C.3     1  UNL1        0.1236
      5 C         142.9490  140.5738  162.7251 C.ar    1  UNL1        0.0338
      6 C         142.7483  141.2040  161.3788 C.ar    1  UNL1        0.0991
      7 N         143.5865  140.4540  160.3863 N.ar    1  UNL1       -0.2265
      8 N         144.3053  139.3603  161.1193 N.ar    1  UNL1       -0.1679
      9 C         143.9112  139.4344  162.5648 C.ar    1  UNL1        0.0981
     10 C         144.1120  138.8042  163.9111 C.3     1  UNL1        0.1414
     11 C         143.6881  140.7464  158.9187 C.ar    1  UNL1        0.1102
     12 C         143.0349  139.8323  157.9248 C.ar    1  UNL1        0.0214
     13 C         143.1365  140.1246  156.4571 C.ar    1  UNL1        0.0017
     14 C         143.8914  141.3311  155.9832 C.ar    1  UNL1        0.0024
     15 C         144.5446  142.2452  156.9771 C.ar    1  UNL1        0.0312
     16 C         144.4430  141.9529  158.4447 C.ar    1  UNL1        0.1577
     17 F         145.0962  142.8670  159.4385 F       1  UNL1       -0.2026
     18 C         140.7968  139.9691  167.1509 C.ar    1  UNL1        0.1431
     19 C         139.9127  140.8097  168.0237 C.ar    1  UNL1        0.0377
     20 C         140.5198  141.7836  168.9896 C.ar    1  UNL1        0.0134
     21 C         142.0109  141.9170  169.0827 C.ar    1  UNL1        0.0688
     22 C         142.8950  141.0763  168.2098 C.ar    1  UNL1        0.0178
     23 C         142.2880  140.1024  167.2440 C.ar    1  UNL1        0.0881
     24 C         142.6179  142.8910  170.0485 C.1     1  UNL1        0.1004
     25 N         143.2250  143.8649  171.0144 N.1     1  UNL1       -0.1908
     26 O         140.1898  138.9951  166.1851 O.3     1  UNL1       -0.4702
     27 C         138.0508  140.0277  165.1322 C.3     1  UNL1        0.0566
     28 C         138.7046  138.9735  165.9755 C.3     1  UNL1        0.2599
     29 C         137.8734  137.8976  166.6091 C.3     1  UNL1        0.4340
     30 F         137.0422  136.8217  167.2428 F       1  UNL1       -0.1664
     31 F         137.3498  138.8890  167.6056 F       1  UNL1       -0.1664
     32 F         138.3970  136.9061  165.6126 F       1  UNL1       -0.1664
@<TRIPOS>BOND
     1    28    27    1
     2    28    26    1
     3    26    18    1
     4    18    19   ar
     5    19    20   ar
     6    20    21   ar
     7    21    24    1
     8    24    25    3
     9    21    22   ar
    10    22    23   ar
    11    23     1    1
    12     1     2    2
    13     1     3   am
    14     3     4    1
    15     4     5    1
    16     5     6   ar
    17     6     7   ar
    18     7    11    1
    19    11    12   ar
    20    12    13   ar
    21    13    14   ar
    22    14    15   ar
    23    15    16   ar
    24    16    17    1
    25     7     8   ar
    26     8     9   ar
    27     9    10    1
    28    28    29    1
    29    29    30    1
    30    29    31    1
    31    29    32    1
    32    23    18   ar
    33    10     3    1
    34     9     5   ar
    35    16    11   ar
@<TRIPOS>MOLECULE
*****
 32 35 0 0 0
SMALL
GASTEIGER

@<TRIPOS>ATOM
      1 C         138.3050  141.4636  162.6609 C.2     1  UNL1        0.2525
      2 O         137.2891  142.5318  162.3834 O.2     1  UNL1       -0.2698
      3 N         138.9333  140.7127  161.5246 N.am    1  UNL1       -0.2660
      4 C         139.9582  139.6242  161.6468 C.3     1  UNL1        0.1236
      5 C         140.3053  139.1572  160.2643 C.ar    1  UNL1        0.0338
      6 C         141.1533  138.1958  159.4853 C.ar    1  UNL1        0.0991
      7 N         140.8671  138.4015  158.0272 N.ar    1  UNL1       -0.2265
      8 N         139.8422  139.4900  157.9051 N.ar    1  UNL1       -0.1679
      9 C         139.4950  139.9570  159.2876 C.ar    1  UNL1        0.0981
     10 C         138.6471  140.9184  160.0666 C.3     1  UNL1        0.1414
     11 C         141.4954  137.6506  156.8910 C.ar    1  UNL1        0.1102
     12 C         142.9859  137.6542  156.7226 C.ar    1  UNL1        0.0214
     13 C         143.6143  136.9032  155.5863 C.ar    1  UNL1        0.0017
     14 C         142.7520  136.1486  154.6182 C.ar    1  UNL1        0.0024
     15 C         141.2614  136.1450  154.7865 C.ar    1  UNL1        0.0312
     16 C         140.6332  136.8959  155.9228 C.ar    1  UNL1        0.1577
     17 F         139.1426  136.8923  156.0911 F       1  UNL1       -0.2026
     18 C         139.7367  141.9697  164.7691 C.ar    1  UNL1        0.1431
     19 C         140.1242  141.6525  166.1830 C.ar    1  UNL1        0.0377
     20 C         139.4675  140.5120  166.9028 C.ar    1  UNL1        0.0134
     21 C         138.4234  139.6887  166.2086 C.ar    1  UNL1        0.0688
     22 C         138.0359  140.0060  164.7946 C.ar    1  UNL1        0.0178
     23 C         138.6925  141.1464  164.0749 C.ar    1  UNL1        0.0881
     24 C         137.7667  138.5482  166.9284 C.1     1  UNL1        0.1004
     25 N         137.1100  137.4077  167.6482 N.1     1  UNL1       -0.1908
     26 O         140.3934  143.1102  164.0493 O.3     1  UNL1       -0.4702
     27 C         138.8222  144.8527  165.1651 C.3     1  UNL1        0.0566
     28 C         139.7558  144.4679  164.0559 C.3     1  UNL1        0.2599
     29 C         140.0518  145.4408  162.9533 C.3     1  UNL1        0.4340
     30 F         140.3477  146.4137  161.8507 F       1  UNL1       -0.1664
     31 F         138.6428  145.3065  162.4565 F       1  UNL1       -0.1664
     32 F         141.4608  145.5752  163.4501 F       1  UNL1       -0.1664
@<TRIPOS>BOND
     1    28    27    1
     2    28    26    1
     3    26    18    1
     4    18    19   ar
     5    19    20   ar
     6    20    21   ar
     7    21    24    1
     8    24    25    3
     9    21    22   ar
    10    22    23   ar
    11    23     1    1
    12     1     2    2
    13     1     3   am
    14     3     4    1
    15     4     5    1
    16     5     6   ar
    17     6     7   ar
    18     7    11    1
    19    11    12   ar
    20    12    13   ar
    21    13    14   ar
    22    14    15   ar
    23    15    16   ar
    24    16    17    1
    25     7     8   ar
    26     8     9   ar
    27     9    10    1
    28    28    29    1
    29    29    30    1
    30    29    31    1
    31    29    32    1
    32    23    18   ar
    33    10     3    1
    34     9     5   ar
    35    16    11   ar
@<TRIPOS>MOLECULE
*****
 32 35 0 0 0
SMALL
GASTEIGER

@<TRIPOS>ATOM
      1 C         142.2905  139.1455  164.5406 C.2     1  UNL1        0.2525
      2 O         142.3043  137.7179  165.0008 O.2     1  UNL1       -0.2698
      3 N         142.7285  139.4888  163.1476 N.am    1  UNL1       -0.2660
      4 C         142.7684  140.8638  162.5496 C.3     1  UNL1        0.1236
      5 C         143.2681  140.7421  161.1406 C.ar    1  UNL1        0.0338
      6 C         143.6016  141.5167  159.9001 C.ar    1  UNL1        0.0991
      7 N         144.0765  140.5452  158.8605 N.ar    1  UNL1       -0.2265
      8 N         144.0366  139.1701  159.4586 N.ar    1  UNL1       -0.1679
      9 C         143.5369  139.2918  160.8677 C.ar    1  UNL1        0.0981
     10 C         143.2034  138.5172  162.1082 C.3     1  UNL1        0.1414
     11 C         144.5145  140.8884  157.4677 C.ar    1  UNL1        0.1102
     12 C         143.9706  140.1204  156.2997 C.ar    1  UNL1        0.0214
     13 C         144.4085  140.4636  154.9067 C.ar    1  UNL1        0.0017
     14 C         145.3905  141.5749  154.6817 C.ar    1  UNL1        0.0024
     15 C         145.9346  142.3430  155.8497 C.ar    1  UNL1        0.0312
     16 C         145.4966  141.9998  157.2426 C.ar    1  UNL1        0.1577
     17 F         146.0405  142.7678  158.4106 F       1  UNL1       -0.2026
     18 C         140.4731  140.8312  165.3192 C.ar    1  UNL1        0.1431
     19 C         140.0214  141.9154  166.2520 C.ar    1  UNL1        0.0377
     20 C         140.9351  142.3985  167.3390 C.ar    1  UNL1        0.0134
     21 C         142.3006  141.7973  167.4933 C.ar    1  UNL1        0.0688
     22 C         142.7524  140.7129  166.5605 C.ar    1  UNL1        0.0178
     23 C         141.8386  140.2298  165.4734 C.ar    1  UNL1        0.0881
     24 C         143.2143  142.2803  168.5804 C.1     1  UNL1        0.1004
     25 N         144.1281  142.7634  169.6675 N.1     1  UNL1       -0.1908
     26 O         139.5594  140.3481  164.2321 O.3     1  UNL1       -0.4702
     27 C         138.8517  138.1212  163.0962 C.3     1  UNL1        0.0566
     28 C         138.9447  138.9827  164.3206 C.3     1  UNL1        0.2599
     29 C         138.4230  138.4788  165.6336 C.3     1  UNL1        0.4340
     30 F         137.9012  137.9750  166.9465 F       1  UNL1       -0.1664
     31 F         137.6087  139.7289  165.7898 F       1  UNL1       -0.1664
     32 F         139.2372  137.2288  165.4775 F       1  UNL1       -0.1664
@<TRIPOS>BOND
     1    28    27    1
     2    28    26    1
     3    26    18    1
     4    18    19   ar
     5    19    20   ar
     6    20    21   ar
     7    21    24    1
     8    24    25    3
     9    21    22   ar
    10    22    23   ar
    11    23     1    1
    12     1     2    2
    13     1     3   am
    14     3     4    1
    15     4     5    1
    16     5     6   ar
    17     6     7   ar
    18     7    11    1
    19    11    12   ar
    20    12    13   ar
    21    13    14   ar
    22    14    15   ar
    23    15    16   ar
    24    16    17    1
    25     7     8   ar
    26     8     9   ar
    27     9    10    1
    28    28    29    1
    29    29    30    1
    30    29    31    1
    31    29    32    1
    32    23    18   ar
    33    10     3    1
    34     9     5   ar
    35    16    11   ar
@<TRIPOS>MOLECULE
*****
 32 35 0 0 0
SMALL
GASTEIGER

@<TRIPOS>ATOM
      1 C         138.2668  141.5454  162.6175 C.2     1  UNL1        0.2525
      2 O         137.4289  142.7866  162.5322 O.2     1  UNL1       -0.2698
      3 N         138.5893  140.7713  161.3737 N.am    1  UNL1       -0.2660
      4 C         139.4110  139.5183  161.3033 C.3     1  UNL1        0.1236
      5 C         139.4762  139.0870  159.8681 C.ar    1  UNL1        0.0338
      6 C         140.0244  138.0461  158.9376 C.ar    1  UNL1        0.0991
      7 N         139.5818  138.3890  157.5459 N.ar    1  UNL1       -0.2265
      8 N         138.7601  139.6421  157.6165 N.ar    1  UNL1       -0.1679
      9 C         138.6949  140.0734  159.0516 C.ar    1  UNL1        0.0981
     10 C         138.1468  141.1143  159.9822 C.3     1  UNL1        0.1414
     11 C         139.9043  137.6150  156.3023 C.ar    1  UNL1        0.1102
     12 C         138.9478  137.6197  155.1468 C.ar    1  UNL1        0.0214
     13 C         139.2703  136.8456  153.9030 C.ar    1  UNL1        0.0017
     14 C         140.5493  136.0669  153.8147 C.ar    1  UNL1        0.0024
     15 C         141.5058  136.0623  154.9703 C.ar    1  UNL1        0.0312
     16 C         141.1833  136.8363  156.2139 C.ar    1  UNL1        0.1577
     17 F         142.1398  136.8316  157.3694 F       1  UNL1       -0.2026
     18 C         140.0878  141.5992  164.4699 C.ar    1  UNL1        0.1431
     19 C         140.6031  141.1320  165.7989 C.ar    1  UNL1        0.0377
     20 C         139.8129  140.1437  166.6044 C.ar    1  UNL1        0.0134
     21 C         138.5073  139.6226  166.0810 C.ar    1  UNL1        0.0688
     22 C         137.9920  140.0899  164.7519 C.ar    1  UNL1        0.0178
     23 C         138.7822  141.0782  163.9464 C.ar    1  UNL1        0.0881
     24 C         137.7171  138.6344  166.8865 C.1     1  UNL1        0.1004
     25 N         136.9269  137.6461  167.6920 N.1     1  UNL1       -0.1908
     26 O         140.8780  142.5875  163.6644 O.3     1  UNL1       -0.4702
     27 C         139.6779  144.7214  164.5341 C.3     1  UNL1        0.0566
     28 C         140.9288  144.0269  164.0835 C.3     1  UNL1        0.2599
     29 C         142.2304  144.7716  164.0520 C.3     1  UNL1        0.4340
     30 F         143.5320  145.5164  164.0204 F       1  UNL1       -0.1664
     31 F         141.5606  145.9123  163.3445 F       1  UNL1       -0.1664
     32 F         142.9002  143.6311  164.7594 F       1  UNL1       -0.1664
@<TRIPOS>BOND
     1    28    27    1
     2    28    26    1
     3    26    18    1
     4    18    19   ar
     5    19    20   ar
     6    20    21   ar
     7    21    24    1
     8    24    25    3
     9    21    22   ar
    10    22    23   ar
    11    23     1    1
    12     1     2    2
    13     1     3   am
    14     3     4    1
    15     4     5    1
    16     5     6   ar
    17     6     7   ar
    18     7    11    1
    19    11    12   ar
    20    12    13   ar
    21    13    14   ar
    22    14    15   ar
    23    15    16   ar
    24    16    17    1
    25     7     8   ar
    26     8     9   ar
    27     9    10    1
    28    28    29    1
    29    29    30    1
    30    29    31    1
    31    29    32    1
    32    23    18   ar
    33    10     3    1
    34     9     5   ar
    35    16    11   ar
@<TRIPOS>MOLECULE
*****
 32 35 0 0 0
SMALL
GASTEIGER

@<TRIPOS>ATOM
      1 C         141.8871  140.7113  163.4940 C.2     1  UNL1        0.2525
      2 O         142.9180  140.5842  164.5762 O.2     1  UNL1       -0.2698
      3 N         142.0335  139.9284  162.2230 N.am    1  UNL1       -0.2660
      4 C         141.0882  139.9527  161.0586 C.3     1  UNL1        0.1236
      5 C         141.6215  139.0231  160.0092 C.ar    1  UNL1        0.0338
      6 C         141.3668  138.4635  158.6409 C.ar    1  UNL1        0.0991
      7 N         142.4844  137.5189  158.3110 N.ar    1  UNL1       -0.2265
      8 N         143.4298  137.4947  159.4754 N.ar    1  UNL1       -0.1679
      9 C         142.8964  138.4243  160.5249 C.ar    1  UNL1        0.0981
     10 C         143.1511  138.9838  161.8931 C.3     1  UNL1        0.1414
     11 C         142.6309  136.7360  157.0400 C.ar    1  UNL1        0.1102
     12 C         142.3354  137.3857  155.7207 C.ar    1  UNL1        0.0214
     13 C         142.4819  136.6028  154.4496 C.ar    1  UNL1        0.0017
     14 C         142.9238  135.1702  154.4978 C.ar    1  UNL1        0.0024
     15 C         143.2193  134.5205  155.8172 C.ar    1  UNL1        0.0312
     16 C         143.0729  135.3034  157.0882 C.ar    1  UNL1        0.1577
     17 F         143.3683  134.6537  158.4075 F       1  UNL1       -0.2026
     18 C         139.6329  141.2611  164.6632 C.ar    1  UNL1        0.1431
     19 C         138.4556  142.1712  164.8520 C.ar    1  UNL1        0.0377
     20 C         138.3550  143.4415  164.0607 C.ar    1  UNL1        0.0134
     21 C         139.4318  143.8018  163.0805 C.ar    1  UNL1        0.0688
     22 C         140.6091  142.8916  162.8916 C.ar    1  UNL1        0.0178
     23 C         140.7097  141.6213  163.6829 C.ar    1  UNL1        0.0881
     24 C         139.3312  145.0721  162.2891 C.1     1  UNL1        0.1004
     25 N         139.2306  146.3424  161.4978 N.1     1  UNL1       -0.1908
     26 O         139.7335  139.9908  165.4545 O.3     1  UNL1       -0.4702
     27 C         138.8593  138.3308  163.6573 C.3     1  UNL1        0.0566
     28 C         138.8944  138.8053  165.0798 C.3     1  UNL1        0.2599
     29 C         138.0903  138.0944  166.1276 C.3     1  UNL1        0.4340
     30 F         137.2863  137.3834  167.1755 F       1  UNL1       -0.1664
     31 F         138.4819  136.7743  165.5325 F       1  UNL1       -0.1664
     32 F         137.6987  139.4144  166.7228 F       1  UNL1       -0.1664
@<TRIPOS>BOND
     1    28    27    1
     2    28    26    1
     3    26    18    1
     4    18    19   ar
     5    19    20   ar
     6    20    21   ar
     7    21    24    1
     8    24    25    3
     9    21    22   ar
    10    22    23   ar
    11    23     1    1
    12     1     2    2
    13     1     3   am
    14     3     4    1
    15     4     5    1
    16     5     6   ar
    17     6     7   ar
    18     7    11    1
    19    11    12   ar
    20    12    13   ar
    21    13    14   ar
    22    14    15   ar
    23    15    16   ar
    24    16    17    1
    25     7     8   ar
    26     8     9   ar
    27     9    10    1
    28    28    29    1
    29    29    30    1
    30    29    31    1
    31    29    32    1
    32    23    18   ar
    33    10     3    1
    34     9     5   ar
    35    16    11   ar
@<TRIPOS>MOLECULE
*****
 32 35 0 0 0
SMALL
GASTEIGER

@<TRIPOS>ATOM
      1 C         138.5747  141.2820  162.3148 C.2     1  UNL1        0.2525
      2 O         137.1233  141.6589  162.2751 O.2     1  UNL1       -0.2698
      3 N         139.1643  140.4519  161.2133 N.am    1  UNL1       -0.2660
      4 C         140.5913  139.9996  161.1173 C.3     1  UNL1        0.1236
      5 C         140.7393  139.1966  159.8591 C.ar    1  UNL1        0.0338
      6 C         141.7128  138.4208  159.0221 C.ar    1  UNL1        0.0991
      7 N         140.9790  137.8972  157.8231 N.ar    1  UNL1       -0.2265
      8 N         139.5520  138.3495  157.9191 N.ar    1  UNL1       -0.1679
      9 C         139.4039  139.1526  159.1774 C.ar    1  UNL1        0.0981
     10 C         138.4305  139.9284  160.0143 C.3     1  UNL1        0.1414
     11 C         141.5686  137.0672  156.7217 C.ar    1  UNL1        0.1102
     12 C         143.0537  136.8719  156.6424 C.ar    1  UNL1        0.0214
     13 C         143.6434  136.0418  155.5409 C.ar    1  UNL1        0.0017
     14 C         142.7479  135.4070  154.5187 C.ar    1  UNL1        0.0024
     15 C         141.2627  135.6023  154.5979 C.ar    1  UNL1        0.0312
     16 C         140.6731  136.4323  155.6993 C.ar    1  UNL1        0.1577
     17 F         139.1880  136.6276  155.7786 F       1  UNL1       -0.2026
     18 C         139.2048  141.1889  164.8336 C.ar    1  UNL1        0.1431
     19 C         140.0665  141.6421  165.9746 C.ar    1  UNL1        0.0377
     20 C         141.1598  142.6416  165.7381 C.ar    1  UNL1        0.0134
     21 C         141.3913  143.1878  164.3604 C.ar    1  UNL1        0.0688
     22 C         140.5295  142.7346  163.2193 C.ar    1  UNL1        0.0178
     23 C         139.4363  141.7352  163.4559 C.ar    1  UNL1        0.0881
     24 C         142.4845  144.1873  164.1238 C.1     1  UNL1        0.1004
     25 N         143.5778  145.1867  163.8873 N.1     1  UNL1       -0.1908
     26 O         138.1116  140.1895  165.0702 O.3     1  UNL1       -0.4702
     27 C         137.9652  138.0319  166.5101 C.3     1  UNL1        0.0566
     28 C         138.4502  138.7436  165.2820 C.3     1  UNL1        0.2599
     29 C         139.2738  138.0096  164.2657 C.3     1  UNL1        0.4340
     30 F         140.0975  137.2756  163.2495 F       1  UNL1       -0.1664
     31 F         140.3700  137.8411  165.2758 F       1  UNL1       -0.1664
     32 F         138.1777  138.1780  163.2557 F       1  UNL1       -0.1664
@<TRIPOS>BOND
     1    28    27    1
     2    28    26    1
     3    26    18    1
     4    18    19   ar
     5    19    20   ar
     6    20    21   ar
     7    21    24    1
     8    24    25    3
     9    21    22   ar
    10    22    23   ar
    11    23     1    1
    12     1     2    2
    13     1     3   am
    14     3     4    1
    15     4     5    1
    16     5     6   ar
    17     6     7   ar
    18     7    11    1
    19    11    12   ar
    20    12    13   ar
    21    13    14   ar
    22    14    15   ar
    23    15    16   ar
    24    16    17    1
    25     7     8   ar
    26     8     9   ar
    27     9    10    1
    28    28    29    1
    29    29    30    1
    30    29    31    1
    31    29    32    1
    32    23    18   ar
    33    10     3    1
    34     9     5   ar
    35    16    11   ar
@<TRIPOS>MOLECULE
*****
 32 35 0 0 0
SMALL
GASTEIGER

@<TRIPOS>ATOM
      1 C         139.4743  142.6445  164.6407 C.2     1  UNL1        0.2525
      2 O         138.2818  143.5493  164.5449 O.2     1  UNL1       -0.2698
      3 N         140.3520  142.4311  163.4431 N.am    1  UNL1       -0.2660
      4 C         141.5720  141.5601  163.3881 C.3     1  UNL1        0.1236
      5 C         142.1378  141.6421  162.0013 C.ar    1  UNL1        0.0338
      6 C         143.2415  141.1544  161.1102 C.ar    1  UNL1        0.0991
      7 N         143.0534  141.7746  159.7574 N.ar    1  UNL1       -0.2265
      8 N         141.8333  142.6457  159.8125 N.ar    1  UNL1       -0.1679
      9 C         141.2675  142.5637  161.1993 C.ar    1  UNL1        0.0981
     10 C         140.1638  143.0514  162.0904 C.3     1  UNL1        0.1414
     11 C         143.9310  141.5613  158.5600 C.ar    1  UNL1        0.1102
     12 C         145.0594  142.5088  158.2788 C.ar    1  UNL1        0.0214
     13 C         145.9372  142.2955  157.0812 C.ar    1  UNL1        0.0017
     14 C         145.6865  141.1347  156.1648 C.ar    1  UNL1        0.0024
     15 C         144.5580  140.1872  156.4460 C.ar    1  UNL1        0.0312
     16 C         143.6804  140.4005  157.6435 C.ar    1  UNL1        0.1577
     17 F         142.5520  139.4531  157.9247 F       1  UNL1       -0.2026
     18 C         139.1607  140.6277  166.2484 C.ar    1  UNL1        0.1431
     19 C         139.4756  139.9363  167.5417 C.ar    1  UNL1        0.0377
     20 C         140.4188  140.5701  168.5208 C.ar    1  UNL1        0.0134
     21 C         141.0473  141.8954  168.2065 C.ar    1  UNL1        0.0688
     22 C         140.7324  142.5868  166.9131 C.ar    1  UNL1        0.0178
     23 C         139.7891  141.9530  165.9340 C.ar    1  UNL1        0.0881
     24 C         141.9905  142.5292  169.1856 C.1     1  UNL1        0.1004
     25 N         142.9338  143.1630  170.1646 N.1     1  UNL1       -0.1908
     26 O         138.2174  139.9939  165.2693 O.3     1  UNL1       -0.4702
     27 C         138.3530  139.2883  162.7726 C.3     1  UNL1        0.0566
     28 C         138.7449  139.0778  164.2051 C.3     1  UNL1        0.2599
     29 C         139.6642  137.9513  164.5735 C.3     1  UNL1        0.4340
     30 F         140.5835  136.8248  164.9419 F       1  UNL1       -0.1664
     31 F         140.7577  138.5775  163.7598 F       1  UNL1       -0.1664
     32 F         138.5707  137.3250  165.3872 F       1  UNL1       -0.1664
@<TRIPOS>BOND
     1    28    27    1
     2    28    26    1
     3    26    18    1
     4    18    19   ar
     5    19    20   ar
     6    20    21   ar
     7    21    24    1
     8    24    25    3
     9    21    22   ar
    10    22    23   ar
    11    23     1    1
    12     1     2    2
    13     1     3   am
    14     3     4    1
    15     4     5    1
    16     5     6   ar
    17     6     7   ar
    18     7    11    1
    19    11    12   ar
    20    12    13   ar
    21    13    14   ar
    22    14    15   ar
    23    15    16   ar
    24    16    17    1
    25     7     8   ar
    26     8     9   ar
    27     9    10    1
    28    28    29    1
    29    29    30    1
    30    29    31    1
    31    29    32    1
    32    23    18   ar
    33    10     3    1
    34     9     5   ar
    35    16    11   ar
@<TRIPOS>MOLECULE
*****
 32 35 0 0 0
SMALL
GASTEIGER

@<TRIPOS>ATOM
      1 C         140.4643  138.5911  162.6418 C.2     1  UNL1        0.2525
      2 O         141.1272  137.2724  162.3743 O.2     1  UNL1       -0.2698
      3 N         140.0362  139.4612  161.4974 N.am    1  UNL1       -0.2660
      4 C         139.3654  140.7981  161.6092 C.3     1  UNL1        0.1236
      5 C         139.1184  141.3103  160.2211 C.ar    1  UNL1        0.0338
      6 C         138.5512  142.4531  159.4323 C.ar    1  UNL1        0.0991
      7 N         138.7189  142.1390  157.9752 N.ar    1  UNL1       -0.2265
      8 N         139.3898  140.8020  157.8634 N.ar    1  UNL1       -0.1679
      9 C         139.6367  140.2899  159.2515 C.ar    1  UNL1        0.0981
     10 C         140.2040  139.1471  160.0403 C.3     1  UNL1        0.1414
     11 C         138.2909  143.0091  156.8308 C.ar    1  UNL1        0.1102
     12 C         139.1405  144.1732  156.4150 C.ar    1  UNL1        0.0214
     13 C         138.7125  145.0434  155.2706 C.ar    1  UNL1        0.0017
     14 C         137.4348  144.7493  154.5419 C.ar    1  UNL1        0.0024
     15 C         136.5851  143.5850  154.9576 C.ar    1  UNL1        0.0312
     16 C         137.0131  142.7150  156.1020 C.ar    1  UNL1        0.1577
     17 F         136.1635  141.5509  156.5178 F       1  UNL1       -0.2026
     18 C         141.1440  140.0493  164.6820 C.ar    1  UNL1        0.1431
     19 C         140.9091  140.4978  166.0939 C.ar    1  UNL1        0.0377
     20 C         139.7598  139.9369  166.8777 C.ar    1  UNL1        0.0134
     21 C         138.8453  138.9274  166.2496 C.ar    1  UNL1        0.0688
     22 C         139.0802  138.4788  164.8376 C.ar    1  UNL1        0.0178
     23 C         140.2295  139.0397  164.0538 C.ar    1  UNL1        0.0881
     24 C         137.6959  138.3665  167.0335 C.1     1  UNL1        0.1004
     25 N         136.5466  137.8055  167.8173 N.1     1  UNL1       -0.1908
     26 O         142.2933  140.6102  163.8981 O.3     1  UNL1       -0.4702
     27 C         143.9677  138.9591  165.0029 C.3     1  UNL1        0.0566
     28 C         143.7002  140.2314  164.2547 C.3     1  UNL1        0.2599
     29 C         144.8396  141.1249  163.8630 C.3     1  UNL1        0.4340
     30 F         145.9789  142.0185  163.4715 F       1  UNL1       -0.1664
     31 F         144.6186  141.9479  165.0976 F       1  UNL1       -0.1664
     32 F         145.0606  140.3021  162.6285 F       1  UNL1       -0.1664
@<TRIPOS>BOND
     1    28    27    1
     2    28    26    1
     3    26    18    1
     4    18    19   ar
     5    19    20   ar
     6    20    21   ar
     7    21    24    1
     8    24    25    3
     9    21    22   ar
    10    22    23   ar
    11    23     1    1
    12     1     2    2
    13     1     3   am
    14     3     4    1
    15     4     5    1
    16     5     6   ar
    17     6     7   ar
    18     7    11    1
    19    11    12   ar
    20    12    13   ar
    21    13    14   ar
    22    14    15   ar
    23    15    16   ar
    24    16    17    1
    25     7     8   ar
    26     8     9   ar
    27     9    10    1
    28    28    29    1
    29    29    30    1
    30    29    31    1
    31    29    32    1
    32    23    18   ar
    33    10     3    1
    34     9     5   ar
    35    16    11   ar
