@<TRIPOS>MOLECULE
*****
 32 36 0 0 0
SMALL
GASTEIGER

@<TRIPOS>ATOM
      1 C         138.4519  139.5033  164.4320 C.ar    1  UNL1        0.1564
      2 C         138.8630  138.0774  164.2135 C.ar    1  UNL1        0.0385
      3 C         139.2346  137.6061  162.8388 C.ar    1  UNL1        0.0033
      4 C         139.1951  138.5608  161.6825 C.ar    1  UNL1        0.0048
      5 C         138.7841  139.9867  161.9010 C.ar    1  UNL1        0.0567
      6 C         138.4125  140.4579  163.2757 C.ar    1  UNL1        0.1209
      7 N         138.0014  141.8839  163.4941 N.ar    1  UNL1       -0.2108
      8 C         137.9619  142.8386  162.3379 C.ar    1  UNL1        0.2163
      9 N         137.5508  144.2646  162.5563 N.pl3   1  UNL1       -0.3274
     10 N         138.3335  142.3674  160.9632 N.ar    1  UNL1       -0.1813
     11 N         138.3889  143.0735  159.6409 N.ar    1  UNL1       -0.1451
     12 C         138.8341  142.0840  158.6053 C.ar    1  UNL1        0.1769
     13 N         139.0540  140.7663  159.2875 N.ar    1  UNL1       -0.2086
     14 C         138.7446  140.9415  160.7447 C.ar    1  UNL1        0.1695
     15 H         137.3069  144.5739  163.4586 H       1  UNL1        0.1452
     16 H         137.5249  144.8912  161.7974 H       1  UNL1        0.1452
     17 C         138.5335  139.2045  167.0115 C.3     1  UNL1        0.2525
     18 O         138.0803  139.9745  165.8067 O.3     1  UNL1       -0.4699
     19 C         139.0259  142.3631  157.1440 C.3     1  UNL1        0.1408
     20 N         139.0844  143.7790  156.6522 N.3     1  UNL1       -0.2644
     21 C         140.1857  144.6878  157.1121 C.3     1  UNL1        0.0941
     22 C         140.2441  146.1037  156.6204 C.3     1  UNL1        0.1082
     23 N         139.2013  146.6108  155.6688 N.pl3   1  UNL1       -0.3035
     24 C         138.1001  145.7020  155.2090 C.3     1  UNL1        0.1067
     25 C         138.0417  144.2861  155.7007 C.3     1  UNL1        0.0777
     26 C         136.9404  143.3774  155.2409 C.3     1  UNL1        0.0192
     27 C         139.2598  148.0267  155.1770 C.ar    1  UNL1        0.0674
     28 C         138.5969  149.1207  155.9605 C.ar    1  UNL1        0.0177
     29 C         138.6554  150.5366  155.4688 C.ar    1  UNL1        0.0219
     30 C         139.3768  150.8585  154.1936 C.ar    1  UNL1        0.0990
     31 N         140.0396  149.7645  153.4102 N.ar    1  UNL1       -0.2410
     32 C         139.9811  148.3486  153.9019 C.ar    1  UNL1        0.1133
@<TRIPOS>BOND
     1    17    18    1
     2    18     1    1
     3     1     2   ar
     4     2     3   ar
     5     3     4   ar
     6     4     5   ar
     7     5     6   ar
     8     6     7   ar
     9     7     8   ar
    10     8     9    1
    11     8    10   ar
    12    10    11   ar
    13    11    12   ar
    14    12    19    1
    15    19    20    1
    16    20    21    1
    17    21    22    1
    18    22    23    1
    19    23    27    1
    20    27    28   ar
    21    28    29   ar
    22    29    30   ar
    23    30    31   ar
    24    31    32   ar
    25    23    24    1
    26    24    25    1
    27    25    26    1
    28    12    13   ar
    29    13    14   ar
    30     6     1   ar
    31    14    10   ar
    32    14     5   ar
    33    25    20    1
    34    32    27   ar
    35     9    15    1
    36     9    16    1
@<TRIPOS>MOLECULE
*****
 32 36 0 0 0
SMALL
GASTEIGER

@<TRIPOS>ATOM
      1 C         138.4582  139.6481  169.2937 C.ar    1  UNL1        0.1564
      2 C         137.7404  138.9806  168.1583 C.ar    1  UNL1        0.0385
      3 C         138.2722  139.1003  166.7609 C.ar    1  UNL1        0.0033
      4 C         139.5217  139.8876  166.4988 C.ar    1  UNL1        0.0048
      5 C         140.2395  140.5551  167.6342 C.ar    1  UNL1        0.0567
      6 C         139.7077  140.4354  169.0316 C.ar    1  UNL1        0.1209
      7 N         140.4256  141.1030  170.1670 N.ar    1  UNL1       -0.2108
      8 C         141.6751  141.8903  169.9050 C.ar    1  UNL1        0.2163
      9 N         142.3930  142.5579  171.0404 N.pl3   1  UNL1       -0.3274
     10 N         142.2069  142.0100  168.5075 N.ar    1  UNL1       -0.1813
     11 N         143.4069  142.7144  167.9471 N.ar    1  UNL1       -0.1451
     12 C         143.4307  142.4821  166.4654 C.ar    1  UNL1        0.1769
     13 N         142.2454  141.6342  166.1100 N.ar    1  UNL1       -0.2086
     14 C         141.4891  141.3425  167.3721 C.ar    1  UNL1        0.1695
     15 H         142.0440  142.4793  171.9576 H       1  UNL1        0.1452
     16 H         143.2131  143.0746  170.8683 H       1  UNL1        0.1452
     17 C         136.5892  138.8933  170.9329 C.3     1  UNL1        0.2525
     18 O         137.9264  139.5284  170.6912 O.3     1  UNL1       -0.4699
     19 C         144.4592  143.0058  165.5072 C.3     1  UNL1        0.1408
     20 N         144.3860  142.6397  164.0545 N.3     1  UNL1       -0.2644
     21 C         144.7225  141.2456  163.6144 C.3     1  UNL1        0.0941
     22 C         144.6493  140.8795  162.1617 C.3     1  UNL1        0.1082
     23 N         144.2395  141.9074  161.1489 N.pl3   1  UNL1       -0.3035
     24 C         143.9030  143.3013  161.5889 C.3     1  UNL1        0.1067
     25 C         143.9762  143.6674  163.0417 C.3     1  UNL1        0.0777
     26 C         143.6397  145.0614  163.4817 C.3     1  UNL1        0.0192
     27 C         144.1663  141.5413  159.6961 C.ar    1  UNL1        0.0674
     28 C         144.3607  142.5950  158.6464 C.ar    1  UNL1        0.0177
     29 C         144.2875  142.2289  157.1936 C.ar    1  UNL1        0.0219
     30 C         144.0199  140.8090  156.7905 C.ar    1  UNL1        0.0990
     31 N         143.8256  139.7553  157.8402 N.ar    1  UNL1       -0.2410
     32 C         143.8988  140.1214  159.2930 C.ar    1  UNL1        0.1133
@<TRIPOS>BOND
     1    17    18    1
     2    18     1    1
     3     1     2   ar
     4     2     3   ar
     5     3     4   ar
     6     4     5   ar
     7     5     6   ar
     8     6     7   ar
     9     7     8   ar
    10     8     9    1
    11     8    10   ar
    12    10    11   ar
    13    11    12   ar
    14    12    19    1
    15    19    20    1
    16    20    21    1
    17    21    22    1
    18    22    23    1
    19    23    27    1
    20    27    28   ar
    21    28    29   ar
    22    29    30   ar
    23    30    31   ar
    24    31    32   ar
    25    23    24    1
    26    24    25    1
    27    25    26    1
    28    12    13   ar
    29    13    14   ar
    30     6     1   ar
    31    14    10   ar
    32    14     5   ar
    33    25    20    1
    34    32    27   ar
    35     9    15    1
    36     9    16    1
@<TRIPOS>MOLECULE
*****
 32 36 0 0 0
SMALL
GASTEIGER

@<TRIPOS>ATOM
      1 C         142.4790  137.8237  156.4388 C.ar    1  UNL1        0.1564
      2 C         141.4848  138.1367  155.3602 C.ar    1  UNL1        0.0385
      3 C         140.1137  138.6250  155.7227 C.ar    1  UNL1        0.0033
      4 C         139.7367  138.8005  157.1639 C.ar    1  UNL1        0.0048
      5 C         140.7310  138.4876  158.2426 C.ar    1  UNL1        0.0567
      6 C         142.1021  137.9992  157.8800 C.ar    1  UNL1        0.1209
      7 N         143.0964  137.6863  158.9588 N.ar    1  UNL1       -0.2108
      8 C         142.7195  137.8617  160.4000 C.ar    1  UNL1        0.2163
      9 N         143.7137  137.5488  161.4787 N.pl3   1  UNL1       -0.3274
     10 N         141.3483  138.3501  160.7625 N.ar    1  UNL1       -0.1813
     11 N         140.6957  138.6179  162.0863 N.ar    1  UNL1       -0.1451
     12 C         139.2981  139.0963  161.8257 C.ar    1  UNL1        0.1769
     13 N         139.0870  139.1242  160.3409 N.ar    1  UNL1       -0.2086
     14 C         140.3541  138.6630  159.6839 C.ar    1  UNL1        0.1695
     15 H         144.6136  137.2283  161.2408 H       1  UNL1        0.1452
     16 H         143.4663  137.6640  162.4247 H       1  UNL1        0.1452
     17 C         144.0438  135.9240  155.6067 C.3     1  UNL1        0.2525
     18 O         143.8502  137.3354  156.0763 O.3     1  UNL1       -0.4699
     19 C         138.2888  139.4796  162.8672 C.3     1  UNL1        0.1408
     20 N         138.7450  139.9488  164.2169 N.3     1  UNL1       -0.2644
     21 C         138.9779  141.4100  164.4637 C.3     1  UNL1        0.0941
     22 C         139.4341  141.8792  165.8134 C.3     1  UNL1        0.1082
     23 N         139.6575  140.8872  166.9163 N.pl3   1  UNL1       -0.3035
     24 C         139.4247  139.4262  166.6694 C.3     1  UNL1        0.1067
     25 C         138.9684  138.9570  165.3197 C.3     1  UNL1        0.0777
     26 C         138.7356  137.4959  165.0728 C.3     1  UNL1        0.0192
     27 C         140.1137  141.3564  168.2660 C.ar    1  UNL1        0.0674
     28 C         141.1123  142.4706  168.3747 C.ar    1  UNL1        0.0177
     29 C         141.5685  142.9398  169.7244 C.ar    1  UNL1        0.0219
     30 C         141.0261  142.2949  170.9654 C.ar    1  UNL1        0.0990
     31 N         140.0276  141.1808  170.8567 N.ar    1  UNL1       -0.2410
     32 C         139.5714  140.7116  169.5070 C.ar    1  UNL1        0.1133
@<TRIPOS>BOND
     1    17    18    1
     2    18     1    1
     3     1     2   ar
     4     2     3   ar
     5     3     4   ar
     6     4     5   ar
     7     5     6   ar
     8     6     7   ar
     9     7     8   ar
    10     8     9    1
    11     8    10   ar
    12    10    11   ar
    13    11    12   ar
    14    12    19    1
    15    19    20    1
    16    20    21    1
    17    21    22    1
    18    22    23    1
    19    23    27    1
    20    27    28   ar
    21    28    29   ar
    22    29    30   ar
    23    30    31   ar
    24    31    32   ar
    25    23    24    1
    26    24    25    1
    27    25    26    1
    28    12    13   ar
    29    13    14   ar
    30     6     1   ar
    31    14    10   ar
    32    14     5   ar
    33    25    20    1
    34    32    27   ar
    35     9    15    1
    36     9    16    1
@<TRIPOS>MOLECULE
*****
 32 36 0 0 0
SMALL
GASTEIGER

@<TRIPOS>ATOM
      1 C         137.3512  141.0845  156.1286 C.ar    1  UNL1        0.1564
      2 C         137.7086  142.1296  155.1137 C.ar    1  UNL1        0.0385
      3 C         138.4261  143.3756  155.5410 C.ar    1  UNL1        0.0033
      4 C         138.7862  143.5765  156.9832 C.ar    1  UNL1        0.0048
      5 C         138.4288  142.5314  157.9980 C.ar    1  UNL1        0.0567
      6 C         137.7113  141.2854  157.5707 C.ar    1  UNL1        0.1209
      7 N         137.3539  140.2403  158.5857 N.ar    1  UNL1       -0.2108
      8 C         137.7140  140.4412  160.0278 C.ar    1  UNL1        0.2163
      9 N         137.3566  139.3961  161.0428 N.pl3   1  UNL1       -0.3274
     10 N         138.4315  141.6872  160.4552 N.ar    1  UNL1       -0.1813
     11 N         138.9128  142.1588  161.7953 N.ar    1  UNL1       -0.1451
     12 C         139.5676  143.4953  161.6087 C.ar    1  UNL1        0.1769
     13 N         139.4911  143.8498  160.1531 N.ar    1  UNL1       -0.2086
     14 C         138.7889  142.7323  159.4403 C.ar    1  UNL1        0.1695
     15 H         136.8856  138.5783  160.7624 H       1  UNL1        0.1452
     16 H         137.5929  139.5280  161.9894 H       1  UNL1        0.1452
     17 C         135.2163  139.9179  155.2167 C.3     1  UNL1        0.2525
     18 O         136.6336  139.8385  155.7012 O.3     1  UNL1       -0.4699
     19 C         140.1898  144.3307  162.6881 C.3     1  UNL1        0.1408
     20 N         140.6014  143.6968  163.9837 N.3     1  UNL1       -0.2644
     21 C         141.8861  142.9269  164.0673 C.3     1  UNL1        0.0941
     22 C         142.2976  142.2930  165.3630 C.3     1  UNL1        0.1082
     23 N         141.4245  142.4290  166.5751 N.pl3   1  UNL1       -0.3035
     24 C         140.1398  143.1989  166.4915 C.3     1  UNL1        0.1067
     25 C         139.7283  143.8328  165.1958 C.3     1  UNL1        0.0777
     26 C         138.4437  144.6026  165.1122 C.3     1  UNL1        0.0192
     27 C         141.8360  141.7951  167.8708 C.ar    1  UNL1        0.0674
     28 C         143.0767  142.2614  168.5731 C.ar    1  UNL1        0.0177
     29 C         143.4883  141.6275  169.8688 C.ar    1  UNL1        0.0219
     30 C         142.6591  140.5272  170.4621 C.ar    1  UNL1        0.0990
     31 N         141.4184  140.0610  169.7598 N.ar    1  UNL1       -0.2410
     32 C         141.0069  140.6949  168.4641 C.ar    1  UNL1        0.1133
@<TRIPOS>BOND
     1    17    18    1
     2    18     1    1
     3     1     2   ar
     4     2     3   ar
     5     3     4   ar
     6     4     5   ar
     7     5     6   ar
     8     6     7   ar
     9     7     8   ar
    10     8     9    1
    11     8    10   ar
    12    10    11   ar
    13    11    12   ar
    14    12    19    1
    15    19    20    1
    16    20    21    1
    17    21    22    1
    18    22    23    1
    19    23    27    1
    20    27    28   ar
    21    28    29   ar
    22    29    30   ar
    23    30    31   ar
    24    31    32   ar
    25    23    24    1
    26    24    25    1
    27    25    26    1
    28    12    13   ar
    29    13    14   ar
    30     6     1   ar
    31    14    10   ar
    32    14     5   ar
    33    25    20    1
    34    32    27   ar
    35     9    15    1
    36     9    16    1
@<TRIPOS>MOLECULE
*****
 32 36 0 0 0
SMALL
GASTEIGER

@<TRIPOS>ATOM
      1 C         140.5034  145.9826  156.6890 C.ar    1  UNL1        0.1564
      2 C         141.3321  145.4789  155.5446 C.ar    1  UNL1        0.0385
      3 C         142.4283  144.4856  155.7926 C.ar    1  UNL1        0.0033
      4 C         142.6959  143.9959  157.1849 C.ar    1  UNL1        0.0048
      5 C         141.8672  144.4996  158.3292 C.ar    1  UNL1        0.0567
      6 C         140.7710  145.4929  158.0813 C.ar    1  UNL1        0.1209
      7 N         139.9423  145.9966  159.2257 N.ar    1  UNL1       -0.2108
      8 C         140.2099  145.5069  160.6180 C.ar    1  UNL1        0.2163
      9 N         139.3812  146.0105  161.7625 N.pl3   1  UNL1       -0.3274
     10 N         141.3061  144.5135  160.8660 N.ar    1  UNL1       -0.1813
     11 N         141.7989  143.8548  162.1203 N.ar    1  UNL1       -0.1451
     12 C         142.9321  142.9441  161.7511 C.ar    1  UNL1        0.1769
     13 N         143.1397  143.0399  160.2686 N.ar    1  UNL1       -0.2086
     14 C         142.1348  144.0099  159.7216 C.ar    1  UNL1        0.1695
     15 H         138.6616  146.6625  161.5997 H       1  UNL1        0.1452
     16 H         139.5568  145.6891  162.6763 H       1  UNL1        0.1452
     17 C         139.0034  147.3123  155.0361 C.3     1  UNL1        0.2525
     18 O         139.4071  146.9759  156.4410 O.3     1  UNL1       -0.4699
     19 C         143.7196  142.0878  162.6981 C.3     1  UNL1        0.1408
     20 N         143.1429  141.7201  164.0331 N.3     1  UNL1       -0.2644
     21 C         142.1799  140.5754  164.1445 C.3     1  UNL1        0.0941
     22 C         141.6031  140.2077  165.4795 C.3     1  UNL1        0.1082
     23 N         141.9894  140.9847  166.7031 N.pl3   1  UNL1       -0.3035
     24 C         142.9524  142.1293  166.5917 C.3     1  UNL1        0.1067
     25 C         143.5291  142.4970  165.2567 C.3     1  UNL1        0.0777
     26 C         144.4921  143.6417  165.1453 C.3     1  UNL1        0.0192
     27 C         141.4127  140.6170  168.0381 C.ar    1  UNL1        0.0674
     28 C         139.9784  140.9290  168.3471 C.ar    1  UNL1        0.0177
     29 C         139.4017  140.5613  169.6821 C.ar    1  UNL1        0.0219
     30 C         140.2593  139.8816  170.7080 C.ar    1  UNL1        0.0990
     31 N         141.6935  139.5695  170.3990 N.ar    1  UNL1       -0.2410
     32 C         142.2702  139.9372  169.0640 C.ar    1  UNL1        0.1133
@<TRIPOS>BOND
     1    17    18    1
     2    18     1    1
     3     1     2   ar
     4     2     3   ar
     5     3     4   ar
     6     4     5   ar
     7     5     6   ar
     8     6     7   ar
     9     7     8   ar
    10     8     9    1
    11     8    10   ar
    12    10    11   ar
    13    11    12   ar
    14    12    19    1
    15    19    20    1
    16    20    21    1
    17    21    22    1
    18    22    23    1
    19    23    27    1
    20    27    28   ar
    21    28    29   ar
    22    29    30   ar
    23    30    31   ar
    24    31    32   ar
    25    23    24    1
    26    24    25    1
    27    25    26    1
    28    12    13   ar
    29    13    14   ar
    30     6     1   ar
    31    14    10   ar
    32    14     5   ar
    33    25    20    1
    34    32    27   ar
    35     9    15    1
    36     9    16    1
@<TRIPOS>MOLECULE
*****
 32 36 0 0 0
SMALL
GASTEIGER

@<TRIPOS>ATOM
      1 C         143.9681  131.4634  155.4062 C.ar    1  UNL1        0.1564
      2 C         144.8730  131.0501  156.5288 C.ar    1  UNL1        0.0385
      3 C         145.1135  131.9813  157.6799 C.ar    1  UNL1        0.0033
      4 C         144.4492  133.3258  157.7085 C.ar    1  UNL1        0.0048
      5 C         143.5443  133.7391  156.5859 C.ar    1  UNL1        0.0567
      6 C         143.3037  132.8079  155.4348 C.ar    1  UNL1        0.1209
      7 N         142.3988  133.2213  154.3121 N.ar    1  UNL1       -0.2108
      8 C         141.7344  134.5658  154.3406 C.ar    1  UNL1        0.2163
      9 N         140.8294  134.9792  153.2180 N.pl3   1  UNL1       -0.3274
     10 N         141.9749  135.4970  155.4918 N.ar    1  UNL1       -0.1813
     11 N         141.4625  136.8743  155.7926 N.ar    1  UNL1       -0.1451
     12 C         142.0508  137.3122  157.1011 C.ar    1  UNL1        0.1769
     13 N         142.9267  136.2055  157.6090 N.ar    1  UNL1       -0.2086
     14 C         142.8798  135.0837  156.6144 C.ar    1  UNL1        0.1695
     15 H         140.6716  134.3681  152.4625 H       1  UNL1        0.1452
     16 H         140.3934  135.8617  153.2367 H       1  UNL1        0.1452
     17 C         144.7481  129.4890  153.9085 C.3     1  UNL1        0.2525
     18 O         143.7276  130.5323  154.2551 O.3     1  UNL1       -0.4699
     19 C         141.8061  138.6261  157.7822 C.3     1  UNL1        0.1408
     20 N         141.1893  138.6588  159.1491 N.3     1  UNL1       -0.2644
     21 C         139.6968  138.6534  159.2988 C.3     1  UNL1        0.0941
     22 C         139.0800  138.6862  160.6658 C.3     1  UNL1        0.1082
     23 N         139.9558  138.7244  161.8830 N.pl3   1  UNL1       -0.3035
     24 C         141.4482  138.7298  161.7333 C.3     1  UNL1        0.1067
     25 C         142.0650  138.6970  160.3664 C.3     1  UNL1        0.0777
     26 C         143.5575  138.7024  160.2166 C.3     1  UNL1        0.0192
     27 C         139.3390  138.7571  163.2500 C.ar    1  UNL1        0.0674
     28 C         139.4029  137.5446  164.1309 C.ar    1  UNL1        0.0177
     29 C         138.7861  137.5774  165.4978 C.ar    1  UNL1        0.0219
     30 C         138.1055  138.8226  165.9838 C.ar    1  UNL1        0.0990
     31 N         138.0416  140.0350  165.1030 N.ar    1  UNL1       -0.2410
     32 C         138.6584  140.0023  163.7360 C.ar    1  UNL1        0.1133
@<TRIPOS>BOND
     1    17    18    1
     2    18     1    1
     3     1     2   ar
     4     2     3   ar
     5     3     4   ar
     6     4     5   ar
     7     5     6   ar
     8     6     7   ar
     9     7     8   ar
    10     8     9    1
    11     8    10   ar
    12    10    11   ar
    13    11    12   ar
    14    12    19    1
    15    19    20    1
    16    20    21    1
    17    21    22    1
    18    22    23    1
    19    23    27    1
    20    27    28   ar
    21    28    29   ar
    22    29    30   ar
    23    30    31   ar
    24    31    32   ar
    25    23    24    1
    26    24    25    1
    27    25    26    1
    28    12    13   ar
    29    13    14   ar
    30     6     1   ar
    31    14    10   ar
    32    14     5   ar
    33    25    20    1
    34    32    27   ar
    35     9    15    1
    36     9    16    1
@<TRIPOS>MOLECULE
*****
 32 36 0 0 0
SMALL
GASTEIGER

@<TRIPOS>ATOM
      1 C         138.1340  139.5029  169.4105 C.ar    1  UNL1        0.1564
      2 C         137.4678  138.7587  168.2915 C.ar    1  UNL1        0.0385
      3 C         138.0337  138.8268  166.9040 C.ar    1  UNL1        0.0033
      4 C         139.2657  139.6392  166.6355 C.ar    1  UNL1        0.0048
      5 C         139.9319  140.3834  167.7546 C.ar    1  UNL1        0.0567
      6 C         139.3660  140.3153  169.1420 C.ar    1  UNL1        0.1209
      7 N         140.0322  141.0596  170.2611 N.ar    1  UNL1       -0.2108
      8 C         141.2642  141.8720  169.9927 C.ar    1  UNL1        0.2163
      9 N         141.9304  142.6163  171.1117 N.pl3   1  UNL1       -0.3274
     10 N         141.8301  141.9401  168.6052 N.ar    1  UNL1       -0.1813
     11 N         143.0232  142.6536  168.0417 N.ar    1  UNL1       -0.1451
     12 C         143.0944  142.3502  166.5744 C.ar    1  UNL1        0.1769
     13 N         141.9453  141.4493  166.2311 N.ar    1  UNL1       -0.2086
     14 C         141.1640  141.1958  167.4861 C.ar    1  UNL1        0.1695
     15 H         141.5590  142.5716  172.0224 H       1  UNL1        0.1452
     16 H         142.7391  143.1495  170.9355 H       1  UNL1        0.1452
     17 C         136.3417  138.6146  171.0684 C.3     1  UNL1        0.2525
     18 O         137.5681  139.4348  170.7980 O.3     1  UNL1       -0.4699
     19 C         144.1325  142.8586  165.6183 C.3     1  UNL1        0.1408
     20 N         143.7878  143.0547  164.1717 N.3     1  UNL1       -0.2644
     21 C         142.5735  143.8489  163.7911 C.3     1  UNL1        0.0941
     22 C         142.2288  144.0451  162.3445 C.3     1  UNL1        0.1082
     23 N         143.0984  143.4470  161.2785 N.pl3   1  UNL1       -0.3035
     24 C         144.3126  142.6528  161.6592 C.3     1  UNL1        0.1067
     25 C         144.6573  142.4567  163.1058 C.3     1  UNL1        0.0777
     26 C         145.8715  141.6625  163.4864 C.3     1  UNL1        0.0192
     27 C         142.7537  143.6432  159.8319 C.ar    1  UNL1        0.0674
     28 C         141.5894  144.5081  159.4489 C.ar    1  UNL1        0.0177
     29 C         141.2447  144.7042  158.0023 C.ar    1  UNL1        0.0219
     30 C         142.0642  144.0355  156.9386 C.ar    1  UNL1        0.0990
     31 N         143.2284  143.1706  157.3216 N.ar    1  UNL1       -0.2410
     32 C         143.5731  142.9744  158.7683 C.ar    1  UNL1        0.1133
@<TRIPOS>BOND
     1    17    18    1
     2    18     1    1
     3     1     2   ar
     4     2     3   ar
     5     3     4   ar
     6     4     5   ar
     7     5     6   ar
     8     6     7   ar
     9     7     8   ar
    10     8     9    1
    11     8    10   ar
    12    10    11   ar
    13    11    12   ar
    14    12    19    1
    15    19    20    1
    16    20    21    1
    17    21    22    1
    18    22    23    1
    19    23    27    1
    20    27    28   ar
    21    28    29   ar
    22    29    30   ar
    23    30    31   ar
    24    31    32   ar
    25    23    24    1
    26    24    25    1
    27    25    26    1
    28    12    13   ar
    29    13    14   ar
    30     6     1   ar
    31    14    10   ar
    32    14     5   ar
    33    25    20    1
    34    32    27   ar
    35     9    15    1
    36     9    16    1
@<TRIPOS>MOLECULE
*****
 32 36 0 0 0
SMALL
GASTEIGER

@<TRIPOS>ATOM
      1 C         142.8926  131.8555  153.6127 C.ar    1  UNL1        0.1564
      2 C         142.1228  132.1896  152.3694 C.ar    1  UNL1        0.0385
      3 C         141.4610  133.5289  152.2343 C.ar    1  UNL1        0.0033
      4 C         141.5689  134.5341  153.3424 C.ar    1  UNL1        0.0048
      5 C         142.3386  134.2000  154.5856 C.ar    1  UNL1        0.0567
      6 C         143.0005  132.8607  154.7208 C.ar    1  UNL1        0.1209
      7 N         143.7703  132.5266  155.9642 N.ar    1  UNL1       -0.2108
      8 C         143.8782  133.5318  157.0723 C.ar    1  UNL1        0.2163
      9 N         144.6480  133.1977  158.3156 N.pl3   1  UNL1       -0.3274
     10 N         143.2164  134.8711  156.9371 N.ar    1  UNL1       -0.1813
     11 N         143.1501  136.0552  157.8555 N.ar    1  UNL1       -0.1451
     12 C         142.3393  137.1210  157.1799 C.ar    1  UNL1        0.1769
     13 N         141.9046  136.5957  155.8438 N.ar    1  UNL1       -0.2086
     14 C         142.4466  135.2052  155.6938 C.ar    1  UNL1        0.1695
     15 H         145.0824  132.3187  158.4044 H       1  UNL1        0.1452
     16 H         144.7188  133.8574  159.0429 H       1  UNL1        0.1452
     17 C         144.0915  129.8191  152.5332 C.3     1  UNL1        0.2525
     18 O         143.5544  130.5162  153.7479 O.3     1  UNL1       -0.4699
     19 C         142.0195  138.4747  157.7416 C.3     1  UNL1        0.1408
     20 N         141.3731  138.5935  159.0899 N.3     1  UNL1       -0.2644
     21 C         139.8903  138.4146  159.2292 C.3     1  UNL1        0.0941
     22 C         139.2438  138.5335  160.5775 C.3     1  UNL1        0.1082
     23 N         140.0802  138.8312  161.7866 N.pl3   1  UNL1       -0.3035
     24 C         141.5630  139.0100  161.6473 C.3     1  UNL1        0.1067
     25 C         142.2094  138.8912  160.2990 C.3     1  UNL1        0.0777
     26 C         143.6921  139.0701  160.1597 C.3     1  UNL1        0.0192
     27 C         139.4338  138.9500  163.1349 C.ar    1  UNL1        0.0674
     28 C         139.3793  137.7610  164.0480 C.ar    1  UNL1        0.0177
     29 C         138.7329  137.8799  165.3963 C.ar    1  UNL1        0.0219
     30 C         138.1410  139.1876  165.8316 C.ar    1  UNL1        0.0990
     31 N         138.1955  140.3765  164.9186 N.ar    1  UNL1       -0.2410
     32 C         138.8419  140.2577  163.5703 C.ar    1  UNL1        0.1133
@<TRIPOS>BOND
     1    17    18    1
     2    18     1    1
     3     1     2   ar
     4     2     3   ar
     5     3     4   ar
     6     4     5   ar
     7     5     6   ar
     8     6     7   ar
     9     7     8   ar
    10     8     9    1
    11     8    10   ar
    12    10    11   ar
    13    11    12   ar
    14    12    19    1
    15    19    20    1
    16    20    21    1
    17    21    22    1
    18    22    23    1
    19    23    27    1
    20    27    28   ar
    21    28    29   ar
    22    29    30   ar
    23    30    31   ar
    24    31    32   ar
    25    23    24    1
    26    24    25    1
    27    25    26    1
    28    12    13   ar
    29    13    14   ar
    30     6     1   ar
    31    14    10   ar
    32    14     5   ar
    33    25    20    1
    34    32    27   ar
    35     9    15    1
    36     9    16    1
@<TRIPOS>MOLECULE
*****
 32 36 0 0 0
SMALL
GASTEIGER

@<TRIPOS>ATOM
      1 C         140.8037  140.4733  168.6884 C.ar    1  UNL1        0.1564
      2 C         142.0925  140.7165  169.4163 C.ar    1  UNL1        0.0385
      3 C         143.1468  141.5897  168.8034 C.ar    1  UNL1        0.0033
      4 C         142.9124  142.2199  167.4626 C.ar    1  UNL1        0.0048
      5 C         141.6237  141.9768  166.7347 C.ar    1  UNL1        0.0567
      6 C         140.5693  141.1035  167.3476 C.ar    1  UNL1        0.1209
      7 N         139.2805  140.8604  166.6196 N.ar    1  UNL1       -0.2108
      8 C         139.0461  141.4906  165.2787 C.ar    1  UNL1        0.2163
      9 N         137.7573  141.2475  164.5507 N.pl3   1  UNL1       -0.3274
     10 N         140.1005  142.3639  164.6658 N.ar    1  UNL1       -0.1813
     11 N         140.1524  143.1143  163.3681 N.ar    1  UNL1       -0.1451
     12 C         141.4733  143.8212  163.2940 C.ar    1  UNL1        0.1769
     13 N         142.2377  143.5076  164.5460 N.ar    1  UNL1       -0.2086
     14 C         141.3892  142.6070  165.3938 C.ar    1  UNL1        0.1695
     15 H         137.0652  140.6743  164.9530 H       1  UNL1        0.1452
     16 H         137.6034  141.6611  163.6707 H       1  UNL1        0.1452
     17 C         138.5773  140.2195  170.0033 C.3     1  UNL1        0.2525
     18 O         139.7493  139.6001  169.3013 O.3     1  UNL1       -0.4699
     19 C         141.9468  144.6893  162.1660 C.3     1  UNL1        0.1408
     20 N         142.5733  144.0675  160.9531 N.3     1  UNL1       -0.2644
     21 C         143.7562  143.1574  161.1032 C.3     1  UNL1        0.0941
     22 C         144.3827  142.5356  159.8903 C.3     1  UNL1        0.1082
     23 N         143.8262  142.8240  158.5275 N.pl3   1  UNL1       -0.3035
     24 C         142.6434  143.7341  158.3775 C.3     1  UNL1        0.1067
     25 C         142.0169  144.3559  159.5903 C.3     1  UNL1        0.0777
     26 C         140.8341  145.2660  159.4404 C.3     1  UNL1        0.0192
     27 C         144.4527  142.2023  157.3146 C.ar    1  UNL1        0.0674
     28 C         145.9431  142.2240  157.1458 C.ar    1  UNL1        0.0177
     29 C         146.5696  141.6022  155.9329 C.ar    1  UNL1        0.0219
     30 C         145.7057  140.9588  154.8890 C.ar    1  UNL1        0.0990
     31 N         144.2154  140.9370  155.0579 N.ar    1  UNL1       -0.2410
     32 C         143.5889  141.5588  156.2707 C.ar    1  UNL1        0.1133
@<TRIPOS>BOND
     1    17    18    1
     2    18     1    1
     3     1     2   ar
     4     2     3   ar
     5     3     4   ar
     6     4     5   ar
     7     5     6   ar
     8     6     7   ar
     9     7     8   ar
    10     8     9    1
    11     8    10   ar
    12    10    11   ar
    13    11    12   ar
    14    12    19    1
    15    19    20    1
    16    20    21    1
    17    21    22    1
    18    22    23    1
    19    23    27    1
    20    27    28   ar
    21    28    29   ar
    22    29    30   ar
    23    30    31   ar
    24    31    32   ar
    25    23    24    1
    26    24    25    1
    27    25    26    1
    28    12    13   ar
    29    13    14   ar
    30     6     1   ar
    31    14    10   ar
    32    14     5   ar
    33    25    20    1
    34    32    27   ar
    35     9    15    1
    36     9    16    1
