@<TRIPOS>MOLECULE
*****
 28 30 0 0 0
SMALL
GASTEIGER

@<TRIPOS>ATOM
      1 C         142.8765  143.7752  162.4161 C.2     1  UNL1        0.2416
      2 O         143.9991  144.7690  162.4604 O.2     1  UNL1       -0.2734
      3 N         142.8800  142.6852  161.3856 N.am    1  UNL1       -0.2749
      4 C         141.7573  141.6914  161.3412 C.3     1  UNL1        0.1150
      5 C         141.7609  140.6014  160.3106 C.3     1  UNL1        0.1165
      6 N         142.8870  140.5053  159.3245 N.am    1  UNL1       -0.2605
      7 C         142.8905  139.4154  158.2940 C.2     1  UNL1        0.3078
      8 O         144.0167  139.3193  157.3077 O.2     1  UNL1       -0.2522
      9 N         141.7679  138.4216  158.2496 N.am    1  UNL1       -0.2681
     10 C         144.0097  141.4992  159.3688 C.3     1  UNL1        0.1165
     11 C         144.0062  142.5891  160.3993 C.3     1  UNL1        0.1150
     12 H         141.0287  138.4847  158.8968 H       1  UNL1        0.1564
     13 C         140.7907  142.5051  167.0026 C.3     1  UNL1        0.0897
     14 N         140.7075  143.2363  165.6956 N.3     1  UNL1       -0.2687
     15 C         139.4981  144.0635  165.3747 C.3     1  UNL1        0.0897
     16 C         139.4148  144.7947  164.0676 C.3     1  UNL1        0.0900
     17 N         140.5409  144.6986  163.0814 N.3     1  UNL1       -0.2629
     18 C         140.4577  145.4297  161.7743 C.3     1  UNL1        0.0900
     19 C         141.7503  143.8713  163.4023 C.3     1  UNL1        0.1512
     20 C         141.8336  143.1402  164.7094 C.3     1  UNL1        0.0978
     21 C         141.7714  137.3316  157.2190 C.ar    1  UNL1        0.0525
     22 C         140.7343  137.3207  156.1353 C.ar    1  UNL1        0.0156
     23 C         140.7378  136.2308  155.1048 C.ar    1  UNL1        0.0135
     24 C         141.7784  135.1518  155.1579 C.ar    1  UNL1        0.0683
     25 CL        141.7819  134.0619  154.1273 Cl      1  UNL1       -0.0814
     26 C         142.8155  135.1627  156.2415 C.ar    1  UNL1        0.0694
     27 CL        143.8561  134.0837  156.2946 Cl      1  UNL1       -0.0813
     28 C         142.8120  136.2526  157.2721 C.ar    1  UNL1        0.0270
@<TRIPOS>BOND
     1    13    14    1
     2    14    15    1
     3    15    16    1
     4    16    17    1
     5    17    18    1
     6    17    19    1
     7    19     1    1
     8     1     2    2
     9     1     3   am
    10     3     4    1
    11     4     5    1
    12     5     6    1
    13     6     7   am
    14     7     8    2
    15     7     9   am
    16     9    21    1
    17    21    22   ar
    18    22    23   ar
    19    23    24   ar
    20    24    25    1
    21    24    26   ar
    22    26    27    1
    23    26    28   ar
    24     6    10    1
    25    10    11    1
    26    19    20    1
    27    20    14    1
    28    11     3    1
    29    28    21   ar
    30     9    12    1
@<TRIPOS>MOLECULE
*****
 28 30 0 0 0
SMALL
GASTEIGER

@<TRIPOS>ATOM
      1 C         143.2423  143.3837  162.5163 C.2     1  UNL1        0.2416
      2 O         144.2296  144.5086  162.4181 O.2     1  UNL1       -0.2734
      3 N         143.1755  142.3477  161.4336 N.am    1  UNL1       -0.2749
      4 C         142.1882  141.2227  161.5318 C.3     1  UNL1        0.1150
      5 C         142.1215  140.1867  160.4491 C.3     1  UNL1        0.1165
      6 N         143.0421  140.2757  159.2682 N.am    1  UNL1       -0.2605
      7 C         142.9754  139.2397  158.1855 C.2     1  UNL1        0.3078
      8 O         143.8960  139.3287  157.0045 O.2     1  UNL1       -0.2522
      9 N         141.9881  138.1147  158.2837 N.am    1  UNL1       -0.2681
     10 C         144.0294  141.4006  159.1700 C.3     1  UNL1        0.1165
     11 C         144.0962  142.4366  160.2526 C.3     1  UNL1        0.1150
     12 H         141.3838  138.0563  159.0588 H       1  UNL1        0.1564
     13 C         138.8256  144.7443  164.8916 C.3     1  UNL1        0.0897
     14 N         140.1133  143.9751  164.8849 N.3     1  UNL1       -0.2687
     15 C         140.4804  143.1169  166.0590 C.3     1  UNL1        0.0897
     16 C         141.7681  142.3476  166.0523 C.3     1  UNL1        0.0900
     17 N         142.6887  142.4365  164.8714 N.3     1  UNL1       -0.2629
     18 C         143.9764  141.6673  164.8647 C.3     1  UNL1        0.0900
     19 C         142.3216  143.2947  163.6973 C.3     1  UNL1        0.1512
     20 C         141.0339  144.0640  163.7040 C.3     1  UNL1        0.0978
     21 C         141.9214  137.0787  157.2009 C.ar    1  UNL1        0.0525
     22 C         140.8229  137.1297  156.1808 C.ar    1  UNL1        0.0156
     23 C         140.7561  136.0938  155.0981 C.ar    1  UNL1        0.0135
     24 C         141.7879  135.0068  155.0355 C.ar    1  UNL1        0.0683
     25 CL        141.7212  133.9708  153.9527 Cl      1  UNL1       -0.0814
     26 C         142.8864  134.9559  156.0556 C.ar    1  UNL1        0.0694
     27 CL        143.9182  133.8688  155.9930 Cl      1  UNL1       -0.0813
     28 C         142.9531  135.9918  157.1384 C.ar    1  UNL1        0.0270
@<TRIPOS>BOND
     1    13    14    1
     2    14    15    1
     3    15    16    1
     4    16    17    1
     5    17    18    1
     6    17    19    1
     7    19     1    1
     8     1     2    2
     9     1     3   am
    10     3     4    1
    11     4     5    1
    12     5     6    1
    13     6     7   am
    14     7     8    2
    15     7     9   am
    16     9    21    1
    17    21    22   ar
    18    22    23   ar
    19    23    24   ar
    20    24    25    1
    21    24    26   ar
    22    26    27    1
    23    26    28   ar
    24     6    10    1
    25    10    11    1
    26    19    20    1
    27    20    14    1
    28    11     3    1
    29    28    21   ar
    30     9    12    1
@<TRIPOS>MOLECULE
*****
 28 30 0 0 0
SMALL
GASTEIGER

@<TRIPOS>ATOM
      1 C         143.5624  137.5100  156.1828 C.2     1  UNL1        0.2416
      2 O         144.7819  137.8935  155.3980 O.2     1  UNL1       -0.2734
      3 N         143.0044  138.4508  157.2090 N.am    1  UNL1       -0.2749
      4 C         141.7849  138.0673  157.9938 C.3     1  UNL1        0.1150
      5 C         141.2269  139.0083  159.0201 C.3     1  UNL1        0.1165
      6 N         141.8884  140.3327  159.2616 N.am    1  UNL1       -0.2605
      7 C         141.3303  141.2736  160.2879 C.2     1  UNL1        0.3078
      8 O         141.9918  142.5981  160.5295 O.2     1  UNL1       -0.2522
      9 N         140.1109  140.8901  161.0726 N.am    1  UNL1       -0.2681
     10 C         143.1078  140.7162  158.4769 C.3     1  UNL1        0.1165
     11 C         143.6659  139.7753  157.4506 C.3     1  UNL1        0.1150
     12 H         139.6767  140.0208  160.9141 H       1  UNL1        0.1564
     13 C         143.2303  132.4091  157.1162 C.3     1  UNL1        0.0897
     14 N         142.7349  133.6351  156.4079 N.3     1  UNL1       -0.2687
     15 C         141.5782  133.5366  155.4581 C.3     1  UNL1        0.0897
     16 C         141.0829  134.7625  154.7498 C.3     1  UNL1        0.0900
     17 N         141.7442  136.0870  154.9914 N.3     1  UNL1       -0.2629
     18 C         141.2489  137.3129  154.2831 C.3     1  UNL1        0.0900
     19 C         142.9010  136.1855  155.9412 C.3     1  UNL1        0.1512
     20 C         143.3963  134.9595  156.6495 C.3     1  UNL1        0.0978
     21 C         139.5529  141.8311  162.0989 C.ar    1  UNL1        0.0525
     22 C         138.3777  142.6995  161.7600 C.ar    1  UNL1        0.0156
     23 C         137.8197  143.6404  162.7862 C.ar    1  UNL1        0.0135
     24 C         138.4368  143.7130  164.1514 C.ar    1  UNL1        0.0683
     25 CL        137.8788  144.6540  165.1777 Cl      1  UNL1       -0.0814
     26 C         139.6120  142.8446  164.4904 C.ar    1  UNL1        0.0694
     27 CL        140.2291  142.9171  165.8557 Cl      1  UNL1       -0.0813
     28 C         140.1700  141.9036  163.4642 C.ar    1  UNL1        0.0270
@<TRIPOS>BOND
     1    13    14    1
     2    14    15    1
     3    15    16    1
     4    16    17    1
     5    17    18    1
     6    17    19    1
     7    19     1    1
     8     1     2    2
     9     1     3   am
    10     3     4    1
    11     4     5    1
    12     5     6    1
    13     6     7   am
    14     7     8    2
    15     7     9   am
    16     9    21    1
    17    21    22   ar
    18    22    23   ar
    19    23    24   ar
    20    24    25    1
    21    24    26   ar
    22    26    27    1
    23    26    28   ar
    24     6    10    1
    25    10    11    1
    26    19    20    1
    27    20    14    1
    28    11     3    1
    29    28    21   ar
    30     9    12    1
@<TRIPOS>MOLECULE
*****
 28 30 0 0 0
SMALL
GASTEIGER

@<TRIPOS>ATOM
      1 C         142.4223  142.4084  160.6479 C.2     1  UNL1        0.2416
      2 O         143.1544  143.6868  160.3651 O.2     1  UNL1       -0.2734
      3 N         142.6096  141.2223  159.7491 N.am    1  UNL1       -0.2749
      4 C         141.8776  139.9440  160.0319 C.3     1  UNL1        0.1150
      5 C         142.0649  138.7578  159.1330 C.3     1  UNL1        0.1165
      6 N         142.9842  138.8500  157.9513 N.am    1  UNL1       -0.2605
      7 C         143.1714  137.6639  157.0525 C.2     1  UNL1        0.3078
      8 O         144.0908  137.7560  155.8707 O.2     1  UNL1       -0.2522
      9 N         142.4394  136.3855  157.3353 N.am    1  UNL1       -0.2681
     10 C         143.7162  140.1283  157.6685 C.3     1  UNL1        0.1165
     11 C         143.5289  141.3145  158.5674 C.3     1  UNL1        0.1150
     12 H         141.8360  136.3250  158.1108 H       1  UNL1        0.1564
     13 C         137.7392  143.1475  162.7744 C.3     1  UNL1        0.0897
     14 N         139.1614  142.6858  162.8929 N.3     1  UNL1       -0.2687
     15 C         139.6644  142.1320  164.1929 C.3     1  UNL1        0.0897
     16 C         141.0866  141.6703  164.3114 C.3     1  UNL1        0.0900
     17 N         142.0059  141.7624  163.1298 N.3     1  UNL1       -0.2629
     18 C         143.4282  141.3007  163.2482 C.3     1  UNL1        0.0900
     19 C         141.5030  142.3163  161.8297 C.3     1  UNL1        0.1512
     20 C         140.0808  142.7779  161.7112 C.3     1  UNL1        0.0978
     21 C         142.6267  135.1993  156.4363 C.ar    1  UNL1        0.0525
     22 C         141.7568  135.0308  155.2260 C.ar    1  UNL1        0.0156
     23 C         141.9441  133.8447  154.3271 C.ar    1  UNL1        0.0135
     24 C         143.0012  132.8272  154.6385 C.ar    1  UNL1        0.0683
     25 CL        143.1885  131.6410  153.7396 Cl      1  UNL1       -0.0814
     26 C         143.8711  132.9957  155.8488 C.ar    1  UNL1        0.0694
     27 CL        144.9283  131.9781  156.1602 Cl      1  UNL1       -0.0813
     28 C         143.6839  134.1818  156.7477 C.ar    1  UNL1        0.0270
@<TRIPOS>BOND
     1    13    14    1
     2    14    15    1
     3    15    16    1
     4    16    17    1
     5    17    18    1
     6    17    19    1
     7    19     1    1
     8     1     2    2
     9     1     3   am
    10     3     4    1
    11     4     5    1
    12     5     6    1
    13     6     7   am
    14     7     8    2
    15     7     9   am
    16     9    21    1
    17    21    22   ar
    18    22    23   ar
    19    23    24   ar
    20    24    25    1
    21    24    26   ar
    22    26    27    1
    23    26    28   ar
    24     6    10    1
    25    10    11    1
    26    19    20    1
    27    20    14    1
    28    11     3    1
    29    28    21   ar
    30     9    12    1
@<TRIPOS>MOLECULE
*****
 28 30 0 0 0
SMALL
GASTEIGER

@<TRIPOS>ATOM
      1 C         139.3926  143.5720  163.9655 C.2     1  UNL1        0.2416
      2 O         138.6749  144.8207  164.3847 O.2     1  UNL1       -0.2734
      3 N         140.2265  143.5689  162.7187 N.am    1  UNL1       -0.2749
      4 C         140.9443  142.3203  162.2996 C.3     1  UNL1        0.1150
      5 C         141.7781  142.3172  161.0527 C.3     1  UNL1        0.1165
      6 N         141.8942  143.5627  160.2249 N.am    1  UNL1       -0.2605
      7 C         142.7280  143.5596  158.9781 C.2     1  UNL1        0.3078
      8 O         142.8441  144.8052  158.1503 O.2     1  UNL1       -0.2522
      9 N         143.4458  142.3109  158.5590 N.am    1  UNL1       -0.2681
     10 C         141.1764  144.8114  160.6441 C.3     1  UNL1        0.1165
     11 C         140.3426  144.8145  161.8909 C.3     1  UNL1        0.1150
     12 H         143.3696  141.4934  159.1022 H       1  UNL1        0.1564
     13 C         140.9398  140.6932  168.0051 C.3     1  UNL1        0.0897
     14 N         140.0502  140.8871  166.8131 N.3     1  UNL1       -0.2687
     15 C         139.0445  139.8355  166.4489 C.3     1  UNL1        0.0897
     16 C         138.1548  140.0294  165.2569 C.3     1  UNL1        0.0900
     17 N         138.2708  141.2749  164.4291 N.3     1  UNL1       -0.2629
     18 C         137.3812  141.4688  163.2371 C.3     1  UNL1        0.0900
     19 C         139.2765  142.3265  164.7933 C.3     1  UNL1        0.1512
     20 C         140.1662  142.1326  165.9854 C.3     1  UNL1        0.0978
     21 C         144.2797  142.3079  157.3121 C.ar    1  UNL1        0.0525
     22 C         143.6167  142.2986  155.9665 C.ar    1  UNL1        0.0156
     23 C         144.4505  142.2955  154.7197 C.ar    1  UNL1        0.0135
     24 C         145.9472  142.3017  154.8183 C.ar    1  UNL1        0.0683
     25 CL        146.7811  142.2986  153.5714 Cl      1  UNL1       -0.0814
     26 C         146.6102  142.3110  156.1638 C.ar    1  UNL1        0.0694
     27 CL        148.1070  142.3172  156.2624 Cl      1  UNL1       -0.0813
     28 C         145.7764  142.3141  157.4107 C.ar    1  UNL1        0.0270
@<TRIPOS>BOND
     1    13    14    1
     2    14    15    1
     3    15    16    1
     4    16    17    1
     5    17    18    1
     6    17    19    1
     7    19     1    1
     8     1     2    2
     9     1     3   am
    10     3     4    1
    11     4     5    1
    12     5     6    1
    13     6     7   am
    14     7     8    2
    15     7     9   am
    16     9    21    1
    17    21    22   ar
    18    22    23   ar
    19    23    24   ar
    20    24    25    1
    21    24    26   ar
    22    26    27    1
    23    26    28   ar
    24     6    10    1
    25    10    11    1
    26    19    20    1
    27    20    14    1
    28    11     3    1
    29    28    21   ar
    30     9    12    1
@<TRIPOS>MOLECULE
*****
 28 30 0 0 0
SMALL
GASTEIGER

@<TRIPOS>ATOM
      1 C         138.5143  141.0141  158.6215 C.2     1  UNL1        0.2416
      2 O         137.3467  140.3310  157.9734 O.2     1  UNL1       -0.2734
      3 N         138.6751  140.9717  160.1122 N.am    1  UNL1       -0.2749
      4 C         139.8428  141.6549  160.7602 C.3     1  UNL1        0.1150
      5 C         140.0036  141.6125  162.2511 C.3     1  UNL1        0.1165
      6 N         138.9969  140.8870  163.0937 N.am    1  UNL1       -0.2605
      7 C         139.1577  140.8446  164.5844 C.2     1  UNL1        0.3078
      8 O         138.1509  140.1191  165.4271 O.2     1  UNL1       -0.2522
      9 N         140.3253  141.5278  165.2325 N.am    1  UNL1       -0.2681
     10 C         137.8292  140.2039  162.4456 C.3     1  UNL1        0.1165
     11 C         137.6684  140.2462  160.9549 C.3     1  UNL1        0.1150
     12 H         140.9861  142.0039  164.6794 H       1  UNL1        0.1564
     13 C         140.1025  145.3532  156.2446 C.3     1  UNL1        0.0897
     14 N         140.3152  143.9092  156.5903 N.3     1  UNL1       -0.2687
     15 C         141.5345  143.1907  156.0934 C.3     1  UNL1        0.0897
     16 C         141.7471  141.7466  156.4391 C.3     1  UNL1        0.0900
     17 N         140.7404  141.0211  157.2818 N.3     1  UNL1       -0.2629
     18 C         140.9530  139.5771  157.6276 C.3     1  UNL1        0.0900
     19 C         139.5211  141.7396  157.7787 C.3     1  UNL1        0.1512
     20 C         139.3085  143.1837  157.4330 C.3     1  UNL1        0.0978
     21 C         140.4862  141.4854  166.7233 C.ar    1  UNL1        0.0525
     22 C         140.7490  140.1792  167.4124 C.ar    1  UNL1        0.0156
     23 C         140.9099  140.1368  168.9031 C.ar    1  UNL1        0.0135
     24 C         140.8078  141.4005  169.7047 C.ar    1  UNL1        0.0683
     25 CL        140.9687  141.3581  171.1955 Cl      1  UNL1       -0.0814
     26 C         140.5450  142.7066  169.0156 C.ar    1  UNL1        0.0694
     27 CL        140.4429  143.9704  169.8173 Cl      1  UNL1       -0.0813
     28 C         140.3841  142.7491  167.5249 C.ar    1  UNL1        0.0270
@<TRIPOS>BOND
     1    13    14    1
     2    14    15    1
     3    15    16    1
     4    16    17    1
     5    17    18    1
     6    17    19    1
     7    19     1    1
     8     1     2    2
     9     1     3   am
    10     3     4    1
    11     4     5    1
    12     5     6    1
    13     6     7   am
    14     7     8    2
    15     7     9   am
    16     9    21    1
    17    21    22   ar
    18    22    23   ar
    19    23    24   ar
    20    24    25    1
    21    24    26   ar
    22    26    27    1
    23    26    28   ar
    24     6    10    1
    25    10    11    1
    26    19    20    1
    27    20    14    1
    28    11     3    1
    29    28    21   ar
    30     9    12    1
@<TRIPOS>MOLECULE
*****
 28 30 0 0 0
SMALL
GASTEIGER

@<TRIPOS>ATOM
      1 C         139.6410  139.0584  157.3955 C.2     1  UNL1        0.2416
      2 O         138.5303  139.3861  156.4420 O.2     1  UNL1       -0.2734
      3 N         139.4815  139.3438  158.8594 N.am    1  UNL1       -0.2749
      4 C         140.5921  139.0161  159.8128 C.3     1  UNL1        0.1150
      5 C         140.4326  139.3015  161.2767 C.3     1  UNL1        0.1165
      6 N         139.1624  139.9146  161.7872 N.am    1  UNL1       -0.2605
      7 C         139.0029  140.2000  163.2511 C.2     1  UNL1        0.3078
      8 O         137.7326  140.8132  163.7617 O.2     1  UNL1       -0.2522
      9 N         140.1136  139.8723  164.2045 N.am    1  UNL1       -0.2681
     10 C         138.0517  140.2424  160.8338 C.3     1  UNL1        0.1165
     11 C         138.2112  139.9570  159.3699 C.3     1  UNL1        0.1150
     12 H         140.9473  139.4699  163.8695 H       1  UNL1        0.1564
     13 C         142.3657  134.8622  155.9926 C.3     1  UNL1        0.0897
     14 N         142.2735  136.3472  156.1834 N.3     1  UNL1       -0.2687
     15 C         143.4515  137.2190  155.8638 C.3     1  UNL1        0.0897
     16 C         143.3594  138.7039  156.0547 C.3     1  UNL1        0.0900
     17 N         142.0892  139.3171  156.5652 N.3     1  UNL1       -0.2629
     18 C         141.9971  140.8020  156.7561 C.3     1  UNL1        0.0900
     19 C         140.9112  138.4453  156.8849 C.3     1  UNL1        0.1512
     20 C         141.0034  136.9603  156.6940 C.3     1  UNL1        0.0978
     21 C         139.9540  140.1577  165.6685 C.ar    1  UNL1        0.0525
     22 C         139.0538  139.2989  166.5063 C.ar    1  UNL1        0.0156
     23 C         138.8942  139.5842  167.9702 C.ar    1  UNL1        0.0135
     24 C         139.6348  140.7285  168.5963 C.ar    1  UNL1        0.0683
     25 CL        139.4753  141.0139  170.0603 Cl      1  UNL1       -0.0814
     26 C         140.5351  141.5874  167.7585 C.ar    1  UNL1        0.0694
     27 CL        141.2758  142.7317  168.3847 Cl      1  UNL1       -0.0813
     28 C         140.6947  141.3020  166.2946 C.ar    1  UNL1        0.0270
@<TRIPOS>BOND
     1    13    14    1
     2    14    15    1
     3    15    16    1
     4    16    17    1
     5    17    18    1
     6    17    19    1
     7    19     1    1
     8     1     2    2
     9     1     3   am
    10     3     4    1
    11     4     5    1
    12     5     6    1
    13     6     7   am
    14     7     8    2
    15     7     9   am
    16     9    21    1
    17    21    22   ar
    18    22    23   ar
    19    23    24   ar
    20    24    25    1
    21    24    26   ar
    22    26    27    1
    23    26    28   ar
    24     6    10    1
    25    10    11    1
    26    19    20    1
    27    20    14    1
    28    11     3    1
    29    28    21   ar
    30     9    12    1
@<TRIPOS>MOLECULE
*****
 28 30 0 0 0
SMALL
GASTEIGER

@<TRIPOS>ATOM
      1 C         143.1428  138.5940  156.7867 C.2     1  UNL1        0.2416
      2 O         143.8334  139.5630  155.8733 O.2     1  UNL1       -0.2734
      3 N         143.0796  138.8670  158.2602 N.am    1  UNL1       -0.2749
      4 C         142.3889  137.8980  159.1735 C.3     1  UNL1        0.1150
      5 C         142.3258  138.1710  160.6472 C.3     1  UNL1        0.1165
      6 N         142.9532  139.4130  161.2074 N.am    1  UNL1       -0.2605
      7 C         142.8900  139.6859  162.6810 C.2     1  UNL1        0.3078
      8 O         143.5175  140.9279  163.2413 O.2     1  UNL1       -0.2522
      9 N         142.1994  138.7170  163.5943 N.am    1  UNL1       -0.2681
     10 C         143.6438  140.3819  160.2941 C.3     1  UNL1        0.1165
     11 C         143.7070  140.1089  158.8205 C.3     1  UNL1        0.1150
     12 H         141.7876  137.9018  163.2266 H       1  UNL1        0.1564
     13 C         143.4738  133.5685  155.5082 C.3     1  UNL1        0.0897
     14 N         142.6809  134.8393  155.5871 N.3     1  UNL1       -0.2687
     15 C         141.2605  134.8682  155.1058 C.3     1  UNL1        0.0897
     16 C         140.4676  136.1390  155.1847 C.3     1  UNL1        0.0900
     17 N         141.0949  137.3809  155.7450 N.3     1  UNL1       -0.2629
     18 C         140.3020  138.6517  155.8240 C.3     1  UNL1        0.0900
     19 C         142.5153  137.3520  156.2263 C.3     1  UNL1        0.1512
     20 C         143.3083  136.0812  156.1474 C.3     1  UNL1        0.0978
     21 C         142.1362  138.9900  165.0680 C.ar    1  UNL1        0.0525
     22 C         143.2563  138.5463  165.9616 C.ar    1  UNL1        0.0156
     23 C         143.1932  138.8193  167.4352 C.ar    1  UNL1        0.0135
     24 C         142.0100  139.5359  168.0151 C.ar    1  UNL1        0.0683
     25 CL        141.9468  139.8090  169.4887 Cl      1  UNL1       -0.0814
     26 C         140.8899  139.9796  167.1215 C.ar    1  UNL1        0.0694
     27 CL        139.7066  140.6963  167.7015 Cl      1  UNL1       -0.0813
     28 C         140.9530  139.7066  165.6479 C.ar    1  UNL1        0.0270
@<TRIPOS>BOND
     1    13    14    1
     2    14    15    1
     3    15    16    1
     4    16    17    1
     5    17    18    1
     6    17    19    1
     7    19     1    1
     8     1     2    2
     9     1     3   am
    10     3     4    1
    11     4     5    1
    12     5     6    1
    13     6     7   am
    14     7     8    2
    15     7     9   am
    16     9    21    1
    17    21    22   ar
    18    22    23   ar
    19    23    24   ar
    20    24    25    1
    21    24    26   ar
    22    26    27    1
    23    26    28   ar
    24     6    10    1
    25    10    11    1
    26    19    20    1
    27    20    14    1
    28    11     3    1
    29    28    21   ar
    30     9    12    1
@<TRIPOS>MOLECULE
*****
 28 30 0 0 0
SMALL
GASTEIGER

@<TRIPOS>ATOM
      1 C         143.9902  141.7172  158.7898 C.2     1  UNL1        0.2416
      2 O         145.0794  142.5048  158.1241 O.2     1  UNL1       -0.2734
      3 N         143.8149  141.7888  160.2777 N.am    1  UNL1       -0.2749
      4 C         142.7257  141.0012  160.9434 C.3     1  UNL1        0.1150
      5 C         142.5504  141.0728  162.4315 C.3     1  UNL1        0.1165
      6 N         143.4645  141.9321  163.2538 N.am    1  UNL1       -0.2605
      7 C         143.2893  142.0037  164.7418 C.2     1  UNL1        0.3078
      8 O         144.2033  142.8629  165.5641 O.2     1  UNL1       -0.2522
      9 N         142.2000  141.2161  165.4074 N.am    1  UNL1       -0.2681
     10 C         144.5538  142.7197  162.5881 C.3     1  UNL1        0.1165
     11 C         144.7290  142.6481  161.1001 C.3     1  UNL1        0.1150
     12 H         141.6001  140.6521  164.8677 H       1  UNL1        0.1564
     13 C         142.8169  137.1042  156.7056 C.3     1  UNL1        0.0897
     14 N         142.4895  138.5514  156.9253 N.3     1  UNL1       -0.2687
     15 C         141.2481  139.1394  156.3228 C.3     1  UNL1        0.0897
     16 C         140.9207  140.5866  156.5425 C.3     1  UNL1        0.0900
     17 N         141.8347  141.4459  157.3648 N.3     1  UNL1       -0.2629
     18 C         141.5073  142.8931  157.5846 C.3     1  UNL1        0.0900
     19 C         143.0761  140.8579  157.9674 C.3     1  UNL1        0.1512
     20 C         143.4035  139.4107  157.7476 C.3     1  UNL1        0.0978
     21 C         142.0248  141.2877  166.8955 C.ar    1  UNL1        0.0525
     22 C         142.5994  140.2137  167.7709 C.ar    1  UNL1        0.0156
     23 C         142.4242  140.2853  169.2589 C.ar    1  UNL1        0.0135
     24 C         141.6744  141.4309  169.8715 C.ar    1  UNL1        0.0683
     25 CL        141.4992  141.5026  171.3595 Cl      1  UNL1       -0.0814
     26 C         141.0999  142.5050  168.9961 C.ar    1  UNL1        0.0694
     27 CL        140.3501  143.6507  169.6088 Cl      1  UNL1       -0.0813
     28 C         141.2750  142.4334  167.5081 C.ar    1  UNL1        0.0270
@<TRIPOS>BOND
     1    13    14    1
     2    14    15    1
     3    15    16    1
     4    16    17    1
     5    17    18    1
     6    17    19    1
     7    19     1    1
     8     1     2    2
     9     1     3   am
    10     3     4    1
    11     4     5    1
    12     5     6    1
    13     6     7   am
    14     7     8    2
    15     7     9   am
    16     9    21    1
    17    21    22   ar
    18    22    23   ar
    19    23    24   ar
    20    24    25    1
    21    24    26   ar
    22    26    27    1
    23    26    28   ar
    24     6    10    1
    25    10    11    1
    26    19    20    1
    27    20    14    1
    28    11     3    1
    29    28    21   ar
    30     9    12    1
