@<TRIPOS>MOLECULE
*****
 38 42 0 0 0
SMALL
GASTEIGER

@<TRIPOS>ATOM
      1 C         137.9348  140.8750  163.2719 C.ar    1  UNL1        0.1533
      2 C         138.5967  141.2768  164.5567 C.ar    1  UNL1        0.0527
      3 C         139.3268  140.2541  165.3760 C.ar    1  UNL1        0.0511
      4 C         139.3949  138.8298  164.9106 C.ar    1  UNL1        0.0160
      5 C         138.7330  138.4281  163.6259 C.ar    1  UNL1        0.0190
      6 C         138.0029  139.4507  162.8065 C.ar    1  UNL1        0.0850
      7 N         139.9887  140.6559  166.6606 N.pl3   1  UNL1       -0.3040
      8 C         141.0858  141.6788  166.6511 C.3     1  UNL1        0.1123
      9 C         141.7478  142.0806  167.9358 C.3     1  UNL1        0.1149
     10 N         141.3126  141.4595  169.2299 N.am    1  UNL1       -0.2741
     11 C         141.9745  141.8613  170.5147 C.2     1  UNL1        0.2526
     12 O         141.5394  141.2403  171.8089 O.2     1  UNL1       -0.2723
     13 C         140.2155  140.4366  169.2395 C.3     1  UNL1        0.1149
     14 C         139.5536  140.0348  167.9548 C.3     1  UNL1        0.1123
     15 C         143.0716  142.8842  170.5052 C.3     1  UNL1        0.1869
     16 C         144.4371  142.5149  170.0063 C.3     1  UNL1        0.0417
     17 O         142.8032  144.2765  170.9945 O.3     1  UNL1       -0.3758
     18 H         143.6121  144.8067  170.9210 H       1  UNL1        0.2110
     19 C         137.9742  142.9192  161.6689 C.3     1  UNL1        0.2525
     20 O         137.2047  141.8977  162.4526 O.3     1  UNL1       -0.4701
     21 N         137.3410  139.0489  161.5218 N.pl3   1  UNL1       -0.2802
     22 H         136.4574  138.6151  161.5380 H       1  UNL1        0.1552
     23 C         138.0254  139.3081  160.2124 C.ar    1  UNL1        0.2208
     24 N         139.3225  138.6246  159.8960 N.ar    1  UNL1       -0.2111
     25 C         140.0069  138.8838  158.5866 C.ar    1  UNL1        0.1147
     26 C         139.3940  139.8264  157.5936 C.ar    1  UNL1        0.0960
     27 CL        140.0784  140.0855  156.2843 Cl      1  UNL1       -0.0790
     28 C         138.0968  140.5099  157.9102 C.ar    1  UNL1        0.1138
     29 N         137.4125  140.2507  159.2195 N.ar    1  UNL1       -0.2111
     30 C         137.4839  141.4525  156.9172 C.ar    1  UNL1        0.1031
     31 C         136.2312  141.2103  156.1286 C.ar    1  UNL1        0.1196
     32 N         135.9893  142.4110  155.2626 N.ar    1  UNL1       -0.2248
     33 C         137.0925  143.3952  155.5161 C.ar    1  UNL1        0.1479
     34 C         137.3753  144.7543  154.9478 C.ar    1  UNL1        0.0374
     35 C         138.5818  145.5209  155.4022 C.ar    1  UNL1        0.0046
     36 C         139.5055  144.9286  156.4248 C.ar    1  UNL1        0.0191
     37 C         139.2228  143.5695  156.9931 C.ar    1  UNL1        0.0815
     38 N         138.0163  142.8028  156.5387 N.ar    1  UNL1       -0.2874
@<TRIPOS>BOND
     1    19    20    1
     2    20     1    1
     3     1     2   ar
     4     2     3   ar
     5     3     7    1
     6     7     8    1
     7     8     9    1
     8     9    10    1
     9    10    11   am
    10    11    12    2
    11    11    15    1
    12    15    16    1
    13    15    17    1
    14    10    13    1
    15    13    14    1
    16     3     4   ar
    17     4     5   ar
    18     5     6   ar
    19     6    21    1
    20    21    23    1
    21    23    24   ar
    22    24    25   ar
    23    25    26   ar
    24    26    27    1
    25    26    28   ar
    26    28    30    1
    27    30    31   ar
    28    31    32   ar
    29    32    33   ar
    30    33    34   ar
    31    34    35   ar
    32    35    36   ar
    33    36    37   ar
    34    37    38   ar
    35    28    29   ar
    36     6     1   ar
    37    29    23   ar
    38    14     7    1
    39    38    30   ar
    40    38    33   ar
    41    17    18    1
    42    21    22    1
@<TRIPOS>MOLECULE
*****
 38 42 0 0 0
SMALL
GASTEIGER

@<TRIPOS>ATOM
      1 C         137.9435  140.5020  163.0931 C.ar    1  UNL1        0.1533
      2 C         138.5484  140.7427  164.4445 C.ar    1  UNL1        0.0527
      3 C         139.2257  139.6204  165.1737 C.ar    1  UNL1        0.0511
      4 C         139.2981  138.2574  164.5516 C.ar    1  UNL1        0.0160
      5 C         138.6931  138.0168  163.2003 C.ar    1  UNL1        0.0190
      6 C         138.0158  139.1390  162.4710 C.ar    1  UNL1        0.0850
      7 N         139.8306  139.8612  166.5250 N.pl3   1  UNL1       -0.3040
      8 C         141.3184  139.9862  166.6692 C.3     1  UNL1        0.1123
      9 C         141.9234  140.2270  168.0205 C.3     1  UNL1        0.1149
     10 N         141.0406  140.3427  169.2276 N.am    1  UNL1       -0.2741
     11 C         141.6455  140.5834  170.5790 C.2     1  UNL1        0.2526
     12 O         140.7627  140.6992  171.7861 O.2     1  UNL1       -0.2723
     13 C         139.5528  140.2177  169.0834 C.3     1  UNL1        0.1149
     14 C         138.9478  139.9769  167.7322 C.3     1  UNL1        0.1123
     15 C         143.1333  140.7085  170.7231 C.3     1  UNL1        0.1869
     16 C         143.8361  141.9317  170.2134 C.3     1  UNL1        0.0417
     17 O         143.9184  139.6103  171.3771 O.3     1  UNL1       -0.3758
     18 H         144.8587  139.8482  171.3893 H       1  UNL1        0.2110
     19 C         137.6683  143.0441  162.6328 C.3     1  UNL1        0.2525
     20 O         137.2662  141.6243  162.3639 O.3     1  UNL1       -0.4701
     21 N         137.4109  138.8983  161.1196 N.pl3   1  UNL1       -0.2802
     22 H         136.5399  138.4458  161.0438 H       1  UNL1        0.1552
     23 C         138.1331  139.3469  159.8839 C.ar    1  UNL1        0.2208
     24 N         139.5413  138.8954  159.6326 N.ar    1  UNL1       -0.2111
     25 C         140.2635  139.3440  158.3968 C.ar    1  UNL1        0.1147
     26 C         139.5775  140.2442  157.4123 C.ar    1  UNL1        0.0960
     27 CL        140.2997  140.6928  156.1765 Cl      1  UNL1       -0.0790
     28 C         138.1692  140.6957  157.6637 C.ar    1  UNL1        0.1138
     29 N         137.4471  140.2471  158.8994 N.ar    1  UNL1       -0.2111
     30 C         137.4832  141.5959  156.6792 C.ar    1  UNL1        0.1031
     31 C         137.3790  143.0892  156.7739 C.ar    1  UNL1        0.1196
     32 N         136.6124  143.5769  155.5804 N.ar    1  UNL1       -0.2248
     33 C         136.2429  142.3850  154.7481 C.ar    1  UNL1        0.1479
     34 C         135.4858  142.2564  153.4596 C.ar    1  UNL1        0.0374
     35 C         135.2670  140.9034  152.8501 C.ar    1  UNL1        0.0046
     36 C         135.8052  139.6790  153.5292 C.ar    1  UNL1        0.0191
     37 C         136.5623  139.8076  154.8177 C.ar    1  UNL1        0.0815
     38 N         136.7811  141.1606  155.4272 N.ar    1  UNL1       -0.2874
@<TRIPOS>BOND
     1    19    20    1
     2    20     1    1
     3     1     2   ar
     4     2     3   ar
     5     3     7    1
     6     7     8    1
     7     8     9    1
     8     9    10    1
     9    10    11   am
    10    11    12    2
    11    11    15    1
    12    15    16    1
    13    15    17    1
    14    10    13    1
    15    13    14    1
    16     3     4   ar
    17     4     5   ar
    18     5     6   ar
    19     6    21    1
    20    21    23    1
    21    23    24   ar
    22    24    25   ar
    23    25    26   ar
    24    26    27    1
    25    26    28   ar
    26    28    30    1
    27    30    31   ar
    28    31    32   ar
    29    32    33   ar
    30    33    34   ar
    31    34    35   ar
    32    35    36   ar
    33    36    37   ar
    34    37    38   ar
    35    28    29   ar
    36     6     1   ar
    37    29    23   ar
    38    14     7    1
    39    38    30   ar
    40    38    33   ar
    41    17    18    1
    42    21    22    1
@<TRIPOS>MOLECULE
*****
 38 42 0 0 0
SMALL
GASTEIGER

@<TRIPOS>ATOM
      1 C         144.0241  140.8613  161.3944 C.ar    1  UNL1        0.1533
      2 C         143.8213  141.1624  162.8499 C.ar    1  UNL1        0.0527
      3 C         143.3880  140.0747  163.7875 C.ar    1  UNL1        0.0511
      4 C         143.1575  138.6859  163.2698 C.ar    1  UNL1        0.0160
      5 C         143.3603  138.3848  161.8144 C.ar    1  UNL1        0.0190
      6 C         143.7936  139.4725  160.8767 C.ar    1  UNL1        0.0850
      7 N         143.1853  140.3759  165.2429 N.pl3   1  UNL1       -0.3040
      8 C         143.1832  141.7976  165.7213 C.3     1  UNL1        0.1123
      9 C         142.9805  142.0989  167.1768 C.3     1  UNL1        0.1149
     10 N         142.7798  140.9785  168.1536 N.am    1  UNL1       -0.2741
     11 C         142.5770  141.2797  169.6091 C.2     1  UNL1        0.2526
     12 O         142.3763  140.1593  170.5860 O.2     1  UNL1       -0.2723
     13 C         142.7818  139.5568  167.6752 C.3     1  UNL1        0.1149
     14 C         142.9846  139.2555  166.2199 C.3     1  UNL1        0.1123
     15 C         142.5749  142.7014  170.0875 C.3     1  UNL1        0.1869
     16 C         141.3146  143.5123  170.0239 C.3     1  UNL1        0.0417
     17 O         143.8332  143.3121  170.6294 O.3     1  UNL1       -0.3758
     18 H         143.6601  144.2297  170.8923 H       1  UNL1        0.2110
     19 C         143.4305  142.7873  159.7549 C.3     1  UNL1        0.2525
     20 O         144.4574  141.9490  160.4567 O.3     1  UNL1       -0.4701
     21 N         143.9964  139.1713  159.4213 N.pl3   1  UNL1       -0.2802
     22 H         144.8734  139.3304  159.0032 H       1  UNL1        0.1552
     23 C         142.8629  138.6277  158.6028 C.ar    1  UNL1        0.2208
     24 N         141.4858  139.2029  158.7534 N.ar    1  UNL1       -0.2111
     25 C         140.3524  138.6594  157.9349 C.ar    1  UNL1        0.1147
     26 C         140.5961  137.5406  156.9659 C.ar    1  UNL1        0.0960
     27 CL        139.4627  136.9970  156.1475 Cl      1  UNL1       -0.0790
     28 C         141.9733  136.9653  156.8154 C.ar    1  UNL1        0.1138
     29 N         143.1066  137.5089  157.6339 N.ar    1  UNL1       -0.2111
     30 C         142.2170  135.8465  155.8464 C.ar    1  UNL1        0.1031
     31 C         141.8305  135.8355  154.3971 C.ar    1  UNL1        0.1196
     32 N         142.2647  134.5245  153.8117 N.ar    1  UNL1       -0.2248
     33 C         142.9194  133.7253  154.8991 C.ar    1  UNL1        0.1479
     34 C         143.5386  132.3591  154.9067 C.ar    1  UNL1        0.0374
     35 C         144.1284  131.8100  156.1718 C.ar    1  UNL1        0.0046
     36 C         144.0989  132.6271  157.4294 C.ar    1  UNL1        0.0191
     37 C         143.4797  133.9933  157.4218 C.ar    1  UNL1        0.0815
     38 N         142.8900  134.5423  156.1567 N.ar    1  UNL1       -0.2874
@<TRIPOS>BOND
     1    19    20    1
     2    20     1    1
     3     1     2   ar
     4     2     3   ar
     5     3     7    1
     6     7     8    1
     7     8     9    1
     8     9    10    1
     9    10    11   am
    10    11    12    2
    11    11    15    1
    12    15    16    1
    13    15    17    1
    14    10    13    1
    15    13    14    1
    16     3     4   ar
    17     4     5   ar
    18     5     6   ar
    19     6    21    1
    20    21    23    1
    21    23    24   ar
    22    24    25   ar
    23    25    26   ar
    24    26    27    1
    25    26    28   ar
    26    28    30    1
    27    30    31   ar
    28    31    32   ar
    29    32    33   ar
    30    33    34   ar
    31    34    35   ar
    32    35    36   ar
    33    36    37   ar
    34    37    38   ar
    35    28    29   ar
    36     6     1   ar
    37    29    23   ar
    38    14     7    1
    39    38    30   ar
    40    38    33   ar
    41    17    18    1
    42    21    22    1
@<TRIPOS>MOLECULE
*****
 38 42 0 0 0
SMALL
GASTEIGER

@<TRIPOS>ATOM
      1 C         141.7774  137.9272  163.1889 C.ar    1  UNL1        0.1533
      2 C         141.6361  138.5608  164.5412 C.ar    1  UNL1        0.0527
      3 C         142.7536  139.3899  165.1014 C.ar    1  UNL1        0.0511
      4 C         144.0123  139.5855  164.3093 C.ar    1  UNL1        0.0160
      5 C         144.1535  138.9519  162.9570 C.ar    1  UNL1        0.0190
      6 C         143.0361  138.1228  162.3968 C.ar    1  UNL1        0.0850
      7 N         142.6123  140.0234  166.4536 N.pl3   1  UNL1       -0.3040
      8 C         142.5691  141.5174  166.5810 C.3     1  UNL1        0.1123
      9 C         142.4278  142.1511  167.9334 C.3     1  UNL1        0.1149
     10 N         142.3297  141.2907  169.1581 N.am    1  UNL1       -0.2741
     11 C         142.1884  141.9242  170.5104 C.2     1  UNL1        0.2526
     12 O         142.0903  141.0639  171.7352 O.2     1  UNL1       -0.2723
     13 C         142.3729  139.7967  169.0307 C.3     1  UNL1        0.1149
     14 C         142.5142  139.1631  167.6784 C.3     1  UNL1        0.1123
     15 C         142.1452  143.4182  170.6379 C.3     1  UNL1        0.1869
     16 C         140.9173  144.1714  170.2196 C.3     1  UNL1        0.0417
     17 O         143.3299  144.1589  171.1835 O.3     1  UNL1       -0.3758
     18 H         143.1379  145.1096  171.1988 H       1  UNL1        0.2110
     19 C         139.3966  137.7588  162.1625 C.3     1  UNL1        0.2525
     20 O         140.6599  137.0980  162.6287 O.3     1  UNL1       -0.4701
     21 N         143.1774  137.4892  161.0445 N.pl3   1  UNL1       -0.2802
     22 H         143.6023  136.6055  160.9569 H       1  UNL1        0.1552
     23 C         142.6712  138.2021  159.8257 C.ar    1  UNL1        0.2208
     24 N         142.9622  137.6528  158.4606 N.ar    1  UNL1       -0.2111
     25 C         142.4561  138.3656  157.2417 C.ar    1  UNL1        0.1147
     26 C         141.6589  139.6279  157.3879 C.ar    1  UNL1        0.0960
     27 CL        141.1528  140.3407  156.1691 Cl      1  UNL1       -0.0790
     28 C         141.3679  140.1772  158.7531 C.ar    1  UNL1        0.1138
     29 N         141.8741  139.4643  159.9719 N.ar    1  UNL1       -0.2111
     30 C         140.5708  141.4395  158.8994 C.ar    1  UNL1        0.1031
     31 C         139.1778  141.5442  159.4457 C.ar    1  UNL1        0.1196
     32 N         138.7728  142.9880  159.4089 N.ar    1  UNL1       -0.2248
     33 C         139.9156  143.7756  158.8399 C.ar    1  UNL1        0.1479
     34 C         140.0878  145.2406  158.5678 C.ar    1  UNL1        0.0374
     35 C         141.3713  145.7485  157.9808 C.ar    1  UNL1        0.0046
     36 C         142.4826  144.7914  157.6658 C.ar    1  UNL1        0.0191
     37 C         142.3103  143.3264  157.9379 C.ar    1  UNL1        0.0815
     38 N         141.0268  142.8185  158.5249 N.ar    1  UNL1       -0.2874
@<TRIPOS>BOND
     1    19    20    1
     2    20     1    1
     3     1     2   ar
     4     2     3   ar
     5     3     7    1
     6     7     8    1
     7     8     9    1
     8     9    10    1
     9    10    11   am
    10    11    12    2
    11    11    15    1
    12    15    16    1
    13    15    17    1
    14    10    13    1
    15    13    14    1
    16     3     4   ar
    17     4     5   ar
    18     5     6   ar
    19     6    21    1
    20    21    23    1
    21    23    24   ar
    22    24    25   ar
    23    25    26   ar
    24    26    27    1
    25    26    28   ar
    26    28    30    1
    27    30    31   ar
    28    31    32   ar
    29    32    33   ar
    30    33    34   ar
    31    34    35   ar
    32    35    36   ar
    33    36    37   ar
    34    37    38   ar
    35    28    29   ar
    36     6     1   ar
    37    29    23   ar
    38    14     7    1
    39    38    30   ar
    40    38    33   ar
    41    17    18    1
    42    21    22    1
@<TRIPOS>MOLECULE
*****
 38 42 0 0 0
SMALL
GASTEIGER

@<TRIPOS>ATOM
      1 C         140.2212  144.0244  162.4815 C.ar    1  UNL1        0.1533
      2 C         140.2754  143.2218  163.7476 C.ar    1  UNL1        0.0527
      3 C         141.5398  143.1765  164.5533 C.ar    1  UNL1        0.0511
      4 C         142.7500  143.9338  164.0930 C.ar    1  UNL1        0.0160
      5 C         142.6958  144.7364  162.8269 C.ar    1  UNL1        0.0190
      6 C         141.4313  144.7817  162.0211 C.ar    1  UNL1        0.0850
      7 N         141.5940  142.3740  165.8194 N.pl3   1  UNL1       -0.3040
      8 C         140.7082  142.7352  166.9748 C.3     1  UNL1        0.1123
      9 C         140.7623  141.9327  168.2409 C.3     1  UNL1        0.1149
     10 N         141.7021  140.7689  168.3516 N.am    1  UNL1       -0.2741
     11 C         141.7563  139.9663  169.6177 C.2     1  UNL1        0.2526
     12 O         142.6961  138.8025  169.7284 O.2     1  UNL1       -0.2723
     13 C         142.5879  140.4076  167.1962 C.3     1  UNL1        0.1149
     14 C         142.5338  141.2101  165.9301 C.3     1  UNL1        0.1123
     15 C         140.8705  140.3276  170.7731 C.3     1  UNL1        0.1869
     16 C         141.1007  141.6058  171.5235 C.3     1  UNL1        0.0417
     17 O         139.7547  139.4106  171.1780 O.3     1  UNL1       -0.3758
     18 H         139.2834  139.7901  171.9362 H       1  UNL1        0.2110
     19 C         138.1136  142.8372  161.5333 C.3     1  UNL1        0.2525
     20 O         138.9567  144.0696  161.6757 O.3     1  UNL1       -0.4701
     21 N         141.3772  145.5843  160.7551 N.pl3   1  UNL1       -0.2802
     22 H         141.3175  146.5661  160.7969 H       1  UNL1        0.1552
     23 C         141.4141  144.8910  159.4254 C.ar    1  UNL1        0.2208
     24 N         142.6683  144.2046  158.9721 N.ar    1  UNL1       -0.2111
     25 C         142.7052  143.5113  157.6424 C.ar    1  UNL1        0.1147
     26 C         141.4878  143.5046  156.7661 C.ar    1  UNL1        0.0960
     27 CL        141.5247  142.8114  155.4364 Cl      1  UNL1       -0.0790
     28 C         140.2335  144.1911  157.2195 C.ar    1  UNL1        0.1138
     29 N         140.1967  144.8843  158.5491 N.ar    1  UNL1       -0.2111
     30 C         139.0161  144.1844  156.3431 C.ar    1  UNL1        0.1031
     31 C         138.6176  145.2624  155.3793 C.ar    1  UNL1        0.1196
     32 N         137.3387  144.8427  154.7173 N.ar    1  UNL1       -0.2248
     33 C         136.9468  143.5053  155.2720 C.ar    1  UNL1        0.1479
     34 C         135.7799  142.6053  154.9920 C.ar    1  UNL1        0.0374
     35 C         135.6497  141.2986  155.7167 C.ar    1  UNL1        0.0046
     36 C         136.6864  140.8917  156.7216 C.ar    1  UNL1        0.0191
     37 C         137.8533  141.7916  157.0016 C.ar    1  UNL1        0.0815
     38 N         137.9835  143.0984  156.2769 N.ar    1  UNL1       -0.2874
@<TRIPOS>BOND
     1    19    20    1
     2    20     1    1
     3     1     2   ar
     4     2     3   ar
     5     3     7    1
     6     7     8    1
     7     8     9    1
     8     9    10    1
     9    10    11   am
    10    11    12    2
    11    11    15    1
    12    15    16    1
    13    15    17    1
    14    10    13    1
    15    13    14    1
    16     3     4   ar
    17     4     5   ar
    18     5     6   ar
    19     6    21    1
    20    21    23    1
    21    23    24   ar
    22    24    25   ar
    23    25    26   ar
    24    26    27    1
    25    26    28   ar
    26    28    30    1
    27    30    31   ar
    28    31    32   ar
    29    32    33   ar
    30    33    34   ar
    31    34    35   ar
    32    35    36   ar
    33    36    37   ar
    34    37    38   ar
    35    28    29   ar
    36     6     1   ar
    37    29    23   ar
    38    14     7    1
    39    38    30   ar
    40    38    33   ar
    41    17    18    1
    42    21    22    1
@<TRIPOS>MOLECULE
*****
 38 42 0 0 0
SMALL
GASTEIGER

@<TRIPOS>ATOM
      1 C         142.6831  143.8330  162.2143 C.ar    1  UNL1        0.1533
      2 C         142.7902  142.9943  163.4534 C.ar    1  UNL1        0.0527
      3 C         141.7290  143.0786  164.5102 C.ar    1  UNL1        0.0511
      4 C         140.5607  144.0016  164.3279 C.ar    1  UNL1        0.0160
      5 C         140.4536  144.8402  163.0888 C.ar    1  UNL1        0.0190
      6 C         141.5148  144.7559  162.0320 C.ar    1  UNL1        0.0850
      7 N         141.8362  142.2400  165.7492 N.pl3   1  UNL1       -0.3040
      8 C         141.0978  142.6404  166.9919 C.3     1  UNL1        0.1123
      9 C         141.2049  141.8017  168.2310 C.3     1  UNL1        0.1149
     10 N         142.0505  140.5629  168.2273 N.am    1  UNL1       -0.2741
     11 C         142.1577  139.7242  169.4663 C.2     1  UNL1        0.2526
     12 O         143.0033  138.4852  169.4627 O.2     1  UNL1       -0.2723
     13 C         142.7889  140.1625  166.9845 C.3     1  UNL1        0.1149
     14 C         142.6818  141.0011  165.7455 C.3     1  UNL1        0.1123
     15 C         141.4192  140.1245  170.7091 C.3     1  UNL1        0.1869
     16 C         139.9353  139.9243  170.7971 C.3     1  UNL1        0.0417
     17 O         142.1647  140.7251  171.8639 O.3     1  UNL1       -0.3758
     18 H         141.5431  140.9250  172.5812 H       1  UNL1        0.2110
     19 C         144.4882  142.4640  160.9425 C.3     1  UNL1        0.2525
     20 O         143.7443  143.7486  161.1575 O.3     1  UNL1       -0.4701
     21 N         141.4076  145.5945  160.7930 N.pl3   1  UNL1       -0.2802
     22 H         141.7436  146.5199  160.7944 H       1  UNL1        0.1552
     23 C         140.7884  145.0233  159.5519 C.ar    1  UNL1        0.2208
     24 N         139.9514  143.7813  159.6346 N.ar    1  UNL1       -0.2111
     25 C         139.3323  143.2101  158.3935 C.ar    1  UNL1        0.1147
     26 C         139.5501  143.8809  157.0697 C.ar    1  UNL1        0.0960
     27 CL        138.9309  143.3097  155.8286 Cl      1  UNL1       -0.0790
     28 C         140.3871  145.1230  156.9869 C.ar    1  UNL1        0.1138
     29 N         141.0062  145.6941  158.2280 N.ar    1  UNL1       -0.2111
     30 C         140.6049  145.7938  155.6631 C.ar    1  UNL1        0.1031
     31 C         141.3769  145.2317  154.5063 C.ar    1  UNL1        0.1196
     32 N         141.3380  146.2350  153.3919 N.ar    1  UNL1       -0.2248
     33 C         140.5421  147.4172  153.8600 C.ar    1  UNL1        0.1479
     34 C         140.1714  148.7067  153.1894 C.ar    1  UNL1        0.0374
     35 C         139.3477  149.7235  153.9225 C.ar    1  UNL1        0.0046
     36 C         138.8946  149.4508  155.3261 C.ar    1  UNL1        0.0191
     37 C         139.2653  148.1613  155.9968 C.ar    1  UNL1        0.0815
     38 N         140.0890  147.1445  155.2637 N.ar    1  UNL1       -0.2874
@<TRIPOS>BOND
     1    19    20    1
     2    20     1    1
     3     1     2   ar
     4     2     3   ar
     5     3     7    1
     6     7     8    1
     7     8     9    1
     8     9    10    1
     9    10    11   am
    10    11    12    2
    11    11    15    1
    12    15    16    1
    13    15    17    1
    14    10    13    1
    15    13    14    1
    16     3     4   ar
    17     4     5   ar
    18     5     6   ar
    19     6    21    1
    20    21    23    1
    21    23    24   ar
    22    24    25   ar
    23    25    26   ar
    24    26    27    1
    25    26    28   ar
    26    28    30    1
    27    30    31   ar
    28    31    32   ar
    29    32    33   ar
    30    33    34   ar
    31    34    35   ar
    32    35    36   ar
    33    36    37   ar
    34    37    38   ar
    35    28    29   ar
    36     6     1   ar
    37    29    23   ar
    38    14     7    1
    39    38    30   ar
    40    38    33   ar
    41    17    18    1
    42    21    22    1
@<TRIPOS>MOLECULE
*****
 38 42 0 0 0
SMALL
GASTEIGER

@<TRIPOS>ATOM
      1 C         139.8569  140.5659  161.7204 C.ar    1  UNL1        0.1533
      2 C         140.1835  140.6850  163.1797 C.ar    1  UNL1        0.0527
      3 C         140.5217  139.4590  163.9750 C.ar    1  UNL1        0.0511
      4 C         140.5332  138.1139  163.3112 C.ar    1  UNL1        0.0160
      5 C         140.2066  137.9949  161.8520 C.ar    1  UNL1        0.0190
      6 C         139.8685  139.2209  161.0566 C.ar    1  UNL1        0.0850
      7 N         140.8482  139.5781  165.4341 N.pl3   1  UNL1       -0.3040
      8 C         139.8033  140.0523  166.4002 C.3     1  UNL1        0.1123
      9 C         140.1299  140.1715  167.8595 C.3     1  UNL1        0.1149
     10 N         141.5012  139.8164  168.3525 N.am    1  UNL1       -0.2741
     11 C         141.8278  139.9356  169.8117 C.2     1  UNL1        0.2526
     12 O         143.1992  139.5805  170.3048 O.2     1  UNL1       -0.2723
     13 C         142.5461  139.3422  167.3864 C.3     1  UNL1        0.1149
     14 C         142.2196  139.2231  165.9272 C.3     1  UNL1        0.1123
     15 C         140.7829  140.4098  170.7778 C.3     1  UNL1        0.1869
     16 C         140.7204  141.8579  171.1638 C.3     1  UNL1        0.0417
     17 O         139.8005  139.4359  171.3578 O.3     1  UNL1       -0.3758
     18 H         139.1990  139.9026  171.9588 H       1  UNL1        0.2110
     19 C         139.0489  143.0333  161.6239 C.3     1  UNL1        0.2525
     20 O         139.5188  141.7920  160.9251 O.3     1  UNL1       -0.4701
     21 N         139.5419  139.1018  159.5975 N.pl3   1  UNL1       -0.2802
     22 H         138.6120  139.2054  159.2911 H       1  UNL1        0.1552
     23 C         140.6320  138.8247  158.6051 C.ar    1  UNL1        0.2208
     24 N         141.7285  139.8267  158.3961 N.ar    1  UNL1       -0.2111
     25 C         142.8186  139.5496  157.4037 C.ar    1  UNL1        0.1147
     26 C         142.8122  138.2705  156.6203 C.ar    1  UNL1        0.0960
     27 CL        143.9023  137.9934  155.6279 Cl      1  UNL1       -0.0790
     28 C         141.7157  137.2684  156.8292 C.ar    1  UNL1        0.1138
     29 N         140.6256  137.5455  157.8216 N.ar    1  UNL1       -0.2111
     30 C         141.7093  135.9893  156.0458 C.ar    1  UNL1        0.1031
     31 C         140.8858  135.7077  154.8241 C.ar    1  UNL1        0.1196
     32 N         141.1929  134.3116  154.3698 N.ar    1  UNL1       -0.2248
     33 C         142.2063  133.7303  155.3107 C.ar    1  UNL1        0.1479
     34 C         142.8796  132.3907  155.3580 C.ar    1  UNL1        0.0374
     35 C         143.8721  132.0881  156.4412 C.ar    1  UNL1        0.0046
     36 C         144.1912  133.1250  157.4770 C.ar    1  UNL1        0.0191
     37 C         143.5179  134.4646  157.4297 C.ar    1  UNL1        0.0815
     38 N         142.5254  134.7672  156.3465 N.ar    1  UNL1       -0.2874
@<TRIPOS>BOND
     1    19    20    1
     2    20     1    1
     3     1     2   ar
     4     2     3   ar
     5     3     7    1
     6     7     8    1
     7     8     9    1
     8     9    10    1
     9    10    11   am
    10    11    12    2
    11    11    15    1
    12    15    16    1
    13    15    17    1
    14    10    13    1
    15    13    14    1
    16     3     4   ar
    17     4     5   ar
    18     5     6   ar
    19     6    21    1
    20    21    23    1
    21    23    24   ar
    22    24    25   ar
    23    25    26   ar
    24    26    27    1
    25    26    28   ar
    26    28    30    1
    27    30    31   ar
    28    31    32   ar
    29    32    33   ar
    30    33    34   ar
    31    34    35   ar
    32    35    36   ar
    33    36    37   ar
    34    37    38   ar
    35    28    29   ar
    36     6     1   ar
    37    29    23   ar
    38    14     7    1
    39    38    30   ar
    40    38    33   ar
    41    17    18    1
    42    21    22    1
@<TRIPOS>MOLECULE
*****
 38 42 0 0 0
SMALL
GASTEIGER

@<TRIPOS>ATOM
      1 C         142.6910  144.0366  162.5561 C.ar    1  UNL1        0.1533
      2 C         142.6025  143.3075  163.8641 C.ar    1  UNL1        0.0527
      3 C         141.3254  143.3301  164.6505 C.ar    1  UNL1        0.0511
      4 C         140.1367  144.0818  164.1290 C.ar    1  UNL1        0.0160
      5 C         140.2251  144.8108  162.8211 C.ar    1  UNL1        0.0190
      6 C         141.5023  144.7883  162.0346 C.ar    1  UNL1        0.0850
      7 N         141.2371  142.6010  165.9584 N.pl3   1  UNL1       -0.3040
      8 C         142.3849  142.6491  166.9228 C.3     1  UNL1        0.1123
      9 C         142.2966  141.9200  168.2308 C.3     1  UNL1        0.1149
     10 N         141.0605  141.1429  168.5742 N.am    1  UNL1       -0.2741
     11 C         140.9722  140.4138  169.8821 C.2     1  UNL1        0.2526
     12 O         139.7361  139.6366  170.2256 O.2     1  UNL1       -0.2723
     13 C         139.9127  141.0948  167.6098 C.3     1  UNL1        0.1149
     14 C         140.0009  141.8239  166.3018 C.3     1  UNL1        0.1123
     15 C         142.1200  140.4619  170.8466 C.3     1  UNL1        0.1869
     16 C         143.2287  139.4568  170.7436 C.3     1  UNL1        0.0417
     17 O         142.1592  141.5151  171.9139 O.3     1  UNL1       -0.3758
     18 H         142.9619  141.4052  172.4473 H       1  UNL1        0.2110
     19 C         144.4691  142.7246  161.1897 C.3     1  UNL1        0.2525
     20 O         143.9681  144.0140  161.7697 O.3     1  UNL1       -0.4701
     21 N         141.5906  145.5174  160.7267 N.pl3   1  UNL1       -0.2802
     22 H         141.7292  146.4920  160.7149 H       1  UNL1        0.1552
     23 C         141.4678  144.7616  159.4369 C.ar    1  UNL1        0.2208
     24 N         142.4737  144.9738  158.3446 N.ar    1  UNL1       -0.2111
     25 C         142.3508  144.2181  157.0547 C.ar    1  UNL1        0.1147
     26 C         141.2222  143.2500  156.8572 C.ar    1  UNL1        0.0960
     27 CL        141.0993  142.4942  155.5674 Cl      1  UNL1       -0.0790
     28 C         140.2162  143.0378  157.9496 C.ar    1  UNL1        0.1138
     29 N         140.3391  143.7936  159.2394 N.ar    1  UNL1       -0.2111
     30 C         139.0876  142.0698  157.7521 C.ar    1  UNL1        0.1031
     31 C         138.9005  140.7727  158.4820 C.ar    1  UNL1        0.1196
     32 N         137.6451  140.1302  157.9709 N.ar    1  UNL1       -0.2248
     33 C         137.0563  141.0301  156.9252 C.ar    1  UNL1        0.1479
     34 C         135.8235  140.9129  156.0788 C.ar    1  UNL1        0.0374
     35 C         135.4823  141.9944  155.0970 C.ar    1  UNL1        0.0046
     36 C         136.3738  143.1932  154.9618 C.ar    1  UNL1        0.0191
     37 C         137.6066  143.3104  155.8083 C.ar    1  UNL1        0.0815
     38 N         137.9478  142.2289  156.7900 N.ar    1  UNL1       -0.2874
@<TRIPOS>BOND
     1    19    20    1
     2    20     1    1
     3     1     2   ar
     4     2     3   ar
     5     3     7    1
     6     7     8    1
     7     8     9    1
     8     9    10    1
     9    10    11   am
    10    11    12    2
    11    11    15    1
    12    15    16    1
    13    15    17    1
    14    10    13    1
    15    13    14    1
    16     3     4   ar
    17     4     5   ar
    18     5     6   ar
    19     6    21    1
    20    21    23    1
    21    23    24   ar
    22    24    25   ar
    23    25    26   ar
    24    26    27    1
    25    26    28   ar
    26    28    30    1
    27    30    31   ar
    28    31    32   ar
    29    32    33   ar
    30    33    34   ar
    31    34    35   ar
    32    35    36   ar
    33    36    37   ar
    34    37    38   ar
    35    28    29   ar
    36     6     1   ar
    37    29    23   ar
    38    14     7    1
    39    38    30   ar
    40    38    33   ar
    41    17    18    1
    42    21    22    1
@<TRIPOS>MOLECULE
*****
 38 42 0 0 0
SMALL
GASTEIGER

@<TRIPOS>ATOM
      1 C         141.7951  138.0509  162.8387 C.ar    1  UNL1        0.1533
      2 C         141.6320  138.6493  164.2046 C.ar    1  UNL1        0.0527
      3 C         142.7626  139.4120  164.8291 C.ar    1  UNL1        0.0511
      4 C         144.0563  139.5764  164.0878 C.ar    1  UNL1        0.0160
      5 C         144.2193  138.9780  162.7221 C.ar    1  UNL1        0.0190
      6 C         143.0887  138.2152  162.0975 C.ar    1  UNL1        0.0850
      7 N         142.5995  140.0104  166.1948 N.pl3   1  UNL1       -0.3040
      8 C         142.4583  141.4955  166.3509 C.3     1  UNL1        0.1123
      9 C         142.2952  142.0940  167.7168 C.3     1  UNL1        0.1149
     10 N         142.2732  141.2073  168.9263 N.am    1  UNL1       -0.2741
     11 C         142.1101  141.8056  170.2921 C.2     1  UNL1        0.2526
     12 O         142.0881  140.9189  171.5018 O.2     1  UNL1       -0.2723
     13 C         142.4144  139.7221  168.7702 C.3     1  UNL1        0.1149
     14 C         142.5776  139.1236  167.4045 C.3     1  UNL1        0.1123
     15 C         141.9689  143.2908  170.4482 C.3     1  UNL1        0.1869
     16 C         140.7019  143.9724  170.0241 C.3     1  UNL1        0.0417
     17 O         143.0948  144.0943  171.0285 O.3     1  UNL1       -0.3758
     18 H         142.8418  145.0303  171.0592 H       1  UNL1        0.2110
     19 C         139.4913  138.0240  161.6380 C.3     1  UNL1        0.2525
     20 O         140.6645  137.2881  162.2142 O.3     1  UNL1       -0.4701
     21 N         143.2519  137.6169  160.7317 N.pl3   1  UNL1       -0.2802
     22 H         143.5033  136.6698  160.6361 H       1  UNL1        0.1552
     23 C         143.0319  138.4613  159.5117 C.ar    1  UNL1        0.2208
     24 N         144.1249  139.3604  159.0149 N.ar    1  UNL1       -0.2111
     25 C         143.9050  140.2049  157.7949 C.ar    1  UNL1        0.1147
     26 C         142.5920  140.1503  157.0717 C.ar    1  UNL1        0.0960
     27 CL        142.3720  140.9948  155.8517 Cl      1  UNL1       -0.0790
     28 C         141.4989  139.2511  157.5685 C.ar    1  UNL1        0.1138
     29 N         141.7189  138.4067  158.7885 N.ar    1  UNL1       -0.2111
     30 C         140.1859  139.1965  156.8453 C.ar    1  UNL1        0.1031
     31 C         139.6702  138.0407  156.0402 C.ar    1  UNL1        0.1196
     32 N         138.3236  138.4180  155.4976 N.ar    1  UNL1       -0.2248
     33 C         138.0071  139.8069  155.9673 C.ar    1  UNL1        0.1479
     34 C         136.8196  140.6957  155.7442 C.ar    1  UNL1        0.0374
     35 C         136.7830  142.0656  156.3541 C.ar    1  UNL1        0.0046
     36 C         137.9339  142.5467  157.1871 C.ar    1  UNL1        0.0191
     37 C         139.1214  141.6580  157.4102 C.ar    1  UNL1        0.0815
     38 N         139.1580  140.2881  156.8003 N.ar    1  UNL1       -0.2874
@<TRIPOS>BOND
     1    19    20    1
     2    20     1    1
     3     1     2   ar
     4     2     3   ar
     5     3     7    1
     6     7     8    1
     7     8     9    1
     8     9    10    1
     9    10    11   am
    10    11    12    2
    11    11    15    1
    12    15    16    1
    13    15    17    1
    14    10    13    1
    15    13    14    1
    16     3     4   ar
    17     4     5   ar
    18     5     6   ar
    19     6    21    1
    20    21    23    1
    21    23    24   ar
    22    24    25   ar
    23    25    26   ar
    24    26    27    1
    25    26    28   ar
    26    28    30    1
    27    30    31   ar
    28    31    32   ar
    29    32    33   ar
    30    33    34   ar
    31    34    35   ar
    32    35    36   ar
    33    36    37   ar
    34    37    38   ar
    35    28    29   ar
    36     6     1   ar
    37    29    23   ar
    38    14     7    1
    39    38    30   ar
    40    38    33   ar
    41    17    18    1
    42    21    22    1
