@<TRIPOS>MOLECULE
*****
 30 33 0 0 0
SMALL
GASTEIGER

@<TRIPOS>ATOM
      1 O         141.8754  138.7053  161.9344 O.2     1  UNL1       -0.2522
      2 C         140.7711  138.5078  160.9386 C.2     1  UNL1        0.3078
      3 N         139.3448  138.4584  161.4002 N.am    1  UNL1       -0.2681
      4 N         141.0933  138.3596  159.4810 N.am    1  UNL1       -0.2611
      5 C         142.5196  138.4090  159.0194 C.3     1  UNL1        0.1123
      6 C         142.8417  138.2608  157.5620 C.3     1  UNL1        0.0940
      7 N         141.7375  138.0633  156.5661 N.3     1  UNL1       -0.2697
      8 C         140.3112  138.0139  157.0277 C.3     1  UNL1        0.0940
      9 C         139.9891  138.1621  158.4852 C.3     1  UNL1        0.1123
     10 H         138.6201  138.3288  160.7466 H       1  UNL1        0.1564
     11 C         139.0227  138.6066  162.8577 C.ar    1  UNL1        0.0516
     12 C         139.1250  137.4224  163.7726 C.ar    1  UNL1        0.0147
     13 C         138.8029  137.5706  165.2301 C.ar    1  UNL1        0.0051
     14 C         138.3783  138.9030  165.7726 C.ar    1  UNL1        0.0715
     15 C         138.2760  140.0873  164.8577 C.ar    1  UNL1        0.0051
     16 C         138.5981  139.9390  163.4003 C.ar    1  UNL1        0.0147
     17 C         138.0562  139.0512  167.2302 C.3     1  UNL1        0.4186
     18 F         137.7340  139.1993  168.6876 F       1  UNL1       -0.1659
     19 F         139.0493  140.1703  167.3360 F       1  UNL1       -0.1659
     20 F         137.0630  137.9321  167.1244 F       1  UNL1       -0.1659
     21 C         142.0597  137.9151  155.1086 C.3     1  UNL1        0.0735
     22 C         142.0973  136.5521  154.4836 C.3     1  UNL1        0.0320
     23 C         141.5803  136.3515  153.0899 C.3     1  UNL1        0.0042
     24 C         141.6179  134.9885  152.4649 C.3     1  UNL1        0.0174
     25 C         142.1726  133.8259  153.2336 C.3     1  UNL1        0.0720
     26 N         142.6896  134.0265  154.6273 N.3     1  UNL1       -0.2739
     27 C         142.6520  135.3896  155.2523 C.3     1  UNL1        0.0734
     28 C         143.2443  132.8640  155.3961 C.3     1  UNL1        0.0576
     29 C         144.4209  132.1042  155.9328 C.3     1  UNL1        0.0173
     30 C         143.0283  131.6104  156.1908 C.3     1  UNL1        0.0173
@<TRIPOS>BOND
     1     1     2    2
     2     2     3   am
     3     3    11    1
     4    11    12   ar
     5    12    13   ar
     6    13    14   ar
     7    14    17    1
     8    17    18    1
     9    17    19    1
    10    17    20    1
    11    14    15   ar
    12    15    16   ar
    13     2     4   am
    14     4     5    1
    15     5     6    1
    16     6     7    1
    17     7    21    1
    18    22    21    1
    19    22    23    1
    20    23    24    1
    21    24    25    1
    22    25    26    1
    23    26    28    1
    24    28    29    1
    25    29    30    1
    26    26    27    1
    27     7     8    1
    28     8     9    1
    29    16    11   ar
    30     9     4    1
    31    27    22    1
    32    30    28    1
    33     3    10    1
@<TRIPOS>MOLECULE
*****
 30 33 0 0 0
SMALL
GASTEIGER

@<TRIPOS>ATOM
      1 O         139.7006  140.3887  162.5045 O.2     1  UNL1       -0.2522
      2 C         140.7879  139.3579  162.4329 C.2     1  UNL1        0.3078
      3 N         141.3695  138.7923  163.6945 N.am    1  UNL1       -0.2681
      4 N         141.2937  138.8928  161.0995 N.am    1  UNL1       -0.2611
      5 C         140.7122  139.4584  159.8378 C.3     1  UNL1        0.1123
      6 C         141.2179  138.9932  158.5045 C.3     1  UNL1        0.0940
      7 N         142.3053  137.9624  158.4329 N.3     1  UNL1       -0.2697
      8 C         142.8868  137.3968  159.6945 C.3     1  UNL1        0.0940
      9 C         142.3810  137.8619  161.0278 C.3     1  UNL1        0.1123
     10 H         142.0831  138.1157  163.6475 H       1  UNL1        0.1564
     11 C         140.8637  139.2574  165.0279 C.ar    1  UNL1        0.0516
     12 C         141.7696  140.0188  165.9497 C.ar    1  UNL1        0.0147
     13 C         141.2638  140.4839  167.2830 C.ar    1  UNL1        0.0051
     14 C         139.8521  140.1877  167.6946 C.ar    1  UNL1        0.0715
     15 C         138.9462  139.4263  166.7728 C.ar    1  UNL1        0.0051
     16 C         139.4520  138.9612  165.4395 C.ar    1  UNL1        0.0147
     17 C         139.3463  140.6529  169.0280 C.3     1  UNL1        0.4186
     18 F         138.8405  141.1180  170.3613 F       1  UNL1       -0.1659
     19 F         140.3740  141.7454  169.0367 F       1  UNL1       -0.1659
     20 F         138.3187  139.5603  169.0193 F       1  UNL1       -0.1659
     21 C         142.8111  137.4972  157.0995 C.3     1  UNL1        0.0735
     22 C         142.5865  136.0792  156.6653 C.3     1  UNL1        0.0320
     23 C         141.4822  135.7553  155.7031 C.3     1  UNL1        0.0042
     24 C         141.2576  134.3373  155.2689 C.3     1  UNL1        0.0174
     25 C         142.1373  133.2429  155.7968 C.3     1  UNL1        0.0720
     26 N         143.2416  133.5668  156.7590 N.3     1  UNL1       -0.2739
     27 C         143.4661  134.9849  157.1932 C.3     1  UNL1        0.0734
     28 C         144.1212  132.4725  157.2869 C.3     1  UNL1        0.0576
     29 C         145.3978  132.0336  157.9407 C.3     1  UNL1        0.0173
     30 C         144.3682  131.0161  157.5475 C.3     1  UNL1        0.0173
@<TRIPOS>BOND
     1     1     2    2
     2     2     3   am
     3     3    11    1
     4    11    12   ar
     5    12    13   ar
     6    13    14   ar
     7    14    17    1
     8    17    18    1
     9    17    19    1
    10    17    20    1
    11    14    15   ar
    12    15    16   ar
    13     2     4   am
    14     4     5    1
    15     5     6    1
    16     6     7    1
    17     7    21    1
    18    22    21    1
    19    22    23    1
    20    23    24    1
    21    24    25    1
    22    25    26    1
    23    26    28    1
    24    28    29    1
    25    29    30    1
    26    26    27    1
    27     7     8    1
    28     8     9    1
    29    16    11   ar
    30     9     4    1
    31    27    22    1
    32    30    28    1
    33     3    10    1
@<TRIPOS>MOLECULE
*****
 30 33 0 0 0
SMALL
GASTEIGER

@<TRIPOS>ATOM
      1 O         139.2417  144.1643  164.9817 O.2     1  UNL1       -0.2522
      2 C         140.1789  143.4424  164.0594 C.2     1  UNL1        0.3078
      3 N         140.8582  142.1848  164.5143 N.am    1  UNL1       -0.2681
      4 N         140.4369  143.9782  162.6823 N.am    1  UNL1       -0.2611
      5 C         139.7576  145.2358  162.2274 C.3     1  UNL1        0.1123
      6 C         140.0156  145.7716  160.8504 C.3     1  UNL1        0.0940
      7 N         140.9528  145.0497  159.9282 N.3     1  UNL1       -0.2697
      8 C         141.6321  143.7921  160.3830 C.3     1  UNL1        0.0940
      9 C         141.3741  143.2563  161.7601 C.3     1  UNL1        0.1123
     10 H         141.4733  141.7110  163.9090 H       1  UNL1        0.1564
     11 C         140.6002  141.6490  165.8915 C.ar    1  UNL1        0.0516
     12 C         139.6662  140.4910  166.0829 C.ar    1  UNL1        0.0147
     13 C         139.4083  139.9553  167.4600 C.ar    1  UNL1        0.0051
     14 C         140.0843  140.5775  168.6456 C.ar    1  UNL1        0.0715
     15 C         141.0183  141.7355  168.4542 C.ar    1  UNL1        0.0051
     16 C         141.2763  142.2712  167.0771 C.ar    1  UNL1        0.0147
     17 C         139.8264  140.0417  170.0228 C.3     1  UNL1        0.4186
     18 F         139.5685  139.5059  171.3998 F       1  UNL1       -0.1659
     19 F         138.5166  140.7717  170.0615 F       1  UNL1       -0.1659
     20 F         141.1362  139.3117  169.9840 F       1  UNL1       -0.1659
     21 C         141.2108  145.5855  158.5510 C.3     1  UNL1        0.0735
     22 C         140.1854  145.4041  157.4714 C.3     1  UNL1        0.0320
     23 C         139.8130  146.5585  156.5891 C.3     1  UNL1        0.0042
     24 C         138.7876  146.3771  155.5095 C.3     1  UNL1        0.0174
     25 C         138.1345  145.0412  155.3122 C.3     1  UNL1        0.0720
     26 N         138.5069  143.8867  156.1945 N.3     1  UNL1       -0.2739
     27 C         139.5324  144.0682  157.2742 C.3     1  UNL1        0.0734
     28 C         137.8539  142.5508  155.9973 C.3     1  UNL1        0.0576
     29 C         136.7712  141.5709  156.3399 C.3     1  UNL1        0.0173
     30 C         137.8056  141.2169  155.3129 C.3     1  UNL1        0.0173
@<TRIPOS>BOND
     1     1     2    2
     2     2     3   am
     3     3    11    1
     4    11    12   ar
     5    12    13   ar
     6    13    14   ar
     7    14    17    1
     8    17    18    1
     9    17    19    1
    10    17    20    1
    11    14    15   ar
    12    15    16   ar
    13     2     4   am
    14     4     5    1
    15     5     6    1
    16     6     7    1
    17     7    21    1
    18    22    21    1
    19    22    23    1
    20    23    24    1
    21    24    25    1
    22    25    26    1
    23    26    28    1
    24    28    29    1
    25    29    30    1
    26    26    27    1
    27     7     8    1
    28     8     9    1
    29    16    11   ar
    30     9     4    1
    31    27    22    1
    32    30    28    1
    33     3    10    1
@<TRIPOS>MOLECULE
*****
 30 33 0 0 0
SMALL
GASTEIGER

@<TRIPOS>ATOM
      1 O         141.8929  141.4123  160.4978 O.2     1  UNL1       -0.2522
      2 C         140.7673  140.5427  160.0219 C.2     1  UNL1        0.3078
      3 N         139.4133  140.6536  160.6578 N.am    1  UNL1       -0.2681
      4 N         140.9956  139.5620  158.9100 N.am    1  UNL1       -0.2611
      5 C         142.3495  139.4510  158.2741 C.3     1  UNL1        0.1123
      6 C         142.5778  138.4704  157.1623 C.3     1  UNL1        0.0940
      7 N         141.4521  137.6007  156.6864 N.3     1  UNL1       -0.2697
      8 C         140.0982  137.7117  157.3223 C.3     1  UNL1        0.0940
      9 C         139.8699  138.6923  158.4341 C.3     1  UNL1        0.1123
     10 H         138.6745  140.0828  160.3455 H       1  UNL1        0.1564
     11 C         139.1850  141.6343  161.7697 C.ar    1  UNL1        0.0516
     12 C         139.7731  141.3807  163.1260 C.ar    1  UNL1        0.0147
     13 C         139.5448  142.3613  164.2378 C.ar    1  UNL1        0.0051
     14 C         138.7283  143.5956  163.9933 C.ar    1  UNL1        0.0715
     15 C         138.1401  143.8493  162.6370 C.ar    1  UNL1        0.0051
     16 C         138.3685  142.8686  161.5252 C.ar    1  UNL1        0.0147
     17 C         138.4999  144.5763  165.1052 C.3     1  UNL1        0.4186
     18 F         138.2716  145.5569  166.2170 F       1  UNL1       -0.1659
     19 F         139.9631  144.9063  165.1147 F       1  UNL1       -0.1659
     20 F         137.0367  144.2464  165.0957 F       1  UNL1       -0.1659
     21 C         141.6805  136.6200  155.5745 C.3     1  UNL1        0.0735
     22 C         142.0042  135.1899  155.8905 C.3     1  UNL1        0.0320
     23 C         143.0384  134.8666  156.9278 C.3     1  UNL1        0.0042
     24 C         143.3621  133.4365  157.2438 C.3     1  UNL1        0.0174
     25 C         142.6516  132.3296  156.5225 C.3     1  UNL1        0.0720
     26 N         141.6174  132.6529  155.4853 N.3     1  UNL1       -0.2739
     27 C         141.2937  134.0832  155.1693 C.3     1  UNL1        0.0734
     28 C         140.9070  131.5462  154.7640 C.3     1  UNL1        0.0576
     29 C         139.9073  130.4279  154.7632 C.3     1  UNL1        0.0173
     30 C         140.6761  130.7475  153.5155 C.3     1  UNL1        0.0173
@<TRIPOS>BOND
     1     1     2    2
     2     2     3   am
     3     3    11    1
     4    11    12   ar
     5    12    13   ar
     6    13    14   ar
     7    14    17    1
     8    17    18    1
     9    17    19    1
    10    17    20    1
    11    14    15   ar
    12    15    16   ar
    13     2     4   am
    14     4     5    1
    15     5     6    1
    16     6     7    1
    17     7    21    1
    18    22    21    1
    19    22    23    1
    20    23    24    1
    21    24    25    1
    22    25    26    1
    23    26    28    1
    24    28    29    1
    25    29    30    1
    26    26    27    1
    27     7     8    1
    28     8     9    1
    29    16    11   ar
    30     9     4    1
    31    27    22    1
    32    30    28    1
    33     3    10    1
@<TRIPOS>MOLECULE
*****
 30 33 0 0 0
SMALL
GASTEIGER

@<TRIPOS>ATOM
      1 O         140.6149  139.2336  163.9068 O.2     1  UNL1       -0.2522
      2 C         141.9337  139.4912  163.2402 C.2     1  UNL1        0.3078
      3 N         143.1023  139.9701  164.0495 N.am    1  UNL1       -0.2681
      4 N         142.0839  139.2699  161.7641 N.am    1  UNL1       -0.2611
      5 C         140.9153  138.7910  160.9548 C.3     1  UNL1        0.1123
      6 C         141.0655  138.5697  159.4789 C.3     1  UNL1        0.0940
      7 N         142.3844  138.8273  158.8123 N.3     1  UNL1       -0.2697
      8 C         143.5530  139.3061  159.6216 C.3     1  UNL1        0.0940
      9 C         143.4027  139.5274  161.0975 C.3     1  UNL1        0.1123
     10 H         143.9679  140.1391  163.6119 H       1  UNL1        0.1564
     11 C         142.9521  140.1914  165.5255 C.ar    1  UNL1        0.0516
     12 C         142.9015  139.0180  166.4585 C.ar    1  UNL1        0.0147
     13 C         142.7514  139.2394  167.9344 C.ar    1  UNL1        0.0051
     14 C         142.6518  140.6341  168.4773 C.ar    1  UNL1        0.0715
     15 C         142.7024  141.8075  167.5443 C.ar    1  UNL1        0.0051
     16 C         142.8526  141.5861  166.0684 C.ar    1  UNL1        0.0147
     17 C         142.5016  140.8554  169.9533 C.3     1  UNL1        0.4186
     18 F         142.3514  141.0767  171.4293 F       1  UNL1       -0.1659
     19 F         143.7959  141.6133  169.9714 F       1  UNL1       -0.1659
     20 F         141.2073  140.0976  169.9352 F       1  UNL1       -0.1659
     21 C         142.5345  138.6059  157.3363 C.3     1  UNL1        0.0735
     22 C         142.2429  137.2580  156.7465 C.3     1  UNL1        0.0320
     23 C         141.1649  137.1083  155.7142 C.3     1  UNL1        0.0042
     24 C         140.8733  135.7604  155.1244 C.3     1  UNL1        0.0174
     25 C         141.6595  134.5620  155.5670 C.3     1  UNL1        0.0720
     26 N         142.7374  134.7116  156.5993 N.3     1  UNL1       -0.2739
     27 C         143.0291  136.0597  157.1891 C.3     1  UNL1        0.0734
     28 C         143.5236  133.5134  157.0419 C.3     1  UNL1        0.0576
     29 C         143.7546  132.0314  157.0218 C.3     1  UNL1        0.0173
     30 C         144.6545  132.9198  157.8286 C.3     1  UNL1        0.0173
@<TRIPOS>BOND
     1     1     2    2
     2     2     3   am
     3     3    11    1
     4    11    12   ar
     5    12    13   ar
     6    13    14   ar
     7    14    17    1
     8    17    18    1
     9    17    19    1
    10    17    20    1
    11    14    15   ar
    12    15    16   ar
    13     2     4   am
    14     4     5    1
    15     5     6    1
    16     6     7    1
    17     7    21    1
    18    22    21    1
    19    22    23    1
    20    23    24    1
    21    24    25    1
    22    25    26    1
    23    26    28    1
    24    28    29    1
    25    29    30    1
    26    26    27    1
    27     7     8    1
    28     8     9    1
    29    16    11   ar
    30     9     4    1
    31    27    22    1
    32    30    28    1
    33     3    10    1
@<TRIPOS>MOLECULE
*****
 30 33 0 0 0
SMALL
GASTEIGER

@<TRIPOS>ATOM
      1 O         140.9350  143.7759  164.2671 O.2     1  UNL1       -0.2522
      2 C         141.9441  143.1393  163.3579 C.2     1  UNL1        0.3078
      3 N         142.8903  142.1062  163.8941 N.am    1  UNL1       -0.2681
      4 N         142.0070  143.5358  161.9126 N.am    1  UNL1       -0.2611
      5 C         141.0608  144.5688  161.3765 C.3     1  UNL1        0.1123
      6 C         141.1237  144.9653  159.9312 C.3     1  UNL1        0.0940
      7 N         142.1328  144.3287  159.0221 N.3     1  UNL1       -0.2697
      8 C         143.0790  143.2957  159.5582 C.3     1  UNL1        0.0940
      9 C         143.0161  142.8992  161.0035 C.3     1  UNL1        0.1123
     10 H         143.5526  141.6884  163.2974 H       1  UNL1        0.1564
     11 C         142.8274  141.7097  165.3394 C.ar    1  UNL1        0.0516
     12 C         142.2059  140.4023  165.7321 C.ar    1  UNL1        0.0147
     13 C         142.1430  140.0058  167.1773 C.ar    1  UNL1        0.0051
     14 C         142.7017  140.9168  168.2299 C.ar    1  UNL1        0.0715
     15 C         143.3233  142.2242  167.8373 C.ar    1  UNL1        0.0051
     16 C         143.3861  142.6207  166.3920 C.ar    1  UNL1        0.0147
     17 C         142.6389  140.5203  169.6752 C.3     1  UNL1        0.4186
     18 F         142.5760  140.1238  171.1205 F       1  UNL1       -0.1659
     19 F         141.5072  139.5845  169.3694 F       1  UNL1       -0.1659
     20 F         143.7705  141.4560  169.9811 F       1  UNL1       -0.1659
     21 C         142.1957  144.7252  157.5768 C.3     1  UNL1        0.0735
     22 C         140.9487  145.1537  156.8617 C.3     1  UNL1        0.0320
     23 C         140.1528  144.1534  156.0770 C.3     1  UNL1        0.0042
     24 C         138.9058  144.5819  155.3619 C.3     1  UNL1        0.0174
     25 C         138.4547  146.0108  155.4315 C.3     1  UNL1        0.0720
     26 N         139.2506  147.0112  156.2162 N.3     1  UNL1       -0.2739
     27 C         140.4976  146.5826  156.9313 C.3     1  UNL1        0.0734
     28 C         138.7995  148.4400  156.2859 C.3     1  UNL1        0.0576
     29 C         138.5740  149.7649  155.6199 C.3     1  UNL1        0.0173
     30 C         138.2438  149.5899  157.0726 C.3     1  UNL1        0.0173
@<TRIPOS>BOND
     1     1     2    2
     2     2     3   am
     3     3    11    1
     4    11    12   ar
     5    12    13   ar
     6    13    14   ar
     7    14    17    1
     8    17    18    1
     9    17    19    1
    10    17    20    1
    11    14    15   ar
    12    15    16   ar
    13     2     4   am
    14     4     5    1
    15     5     6    1
    16     6     7    1
    17     7    21    1
    18    22    21    1
    19    22    23    1
    20    23    24    1
    21    24    25    1
    22    25    26    1
    23    26    28    1
    24    28    29    1
    25    29    30    1
    26    26    27    1
    27     7     8    1
    28     8     9    1
    29    16    11   ar
    30     9     4    1
    31    27    22    1
    32    30    28    1
    33     3    10    1
@<TRIPOS>MOLECULE
*****
 30 33 0 0 0
SMALL
GASTEIGER

@<TRIPOS>ATOM
      1 O         143.1807  139.6651  156.3311 O.2     1  UNL1       -0.2522
      2 C         143.2698  139.0719  157.7059 C.2     1  UNL1        0.3078
      3 N         143.0038  137.6100  157.9106 N.am    1  UNL1       -0.2681
      4 N         143.6250  139.9407  158.8760 N.am    1  UNL1       -0.2611
      5 C         143.8910  141.4026  158.6713 C.3     1  UNL1        0.1123
      6 C         144.2461  142.2713  159.8415 C.3     1  UNL1        0.0940
      7 N         144.3352  141.6780  161.2163 N.3     1  UNL1       -0.2697
      8 C         144.0692  140.2161  161.4210 C.3     1  UNL1        0.0940
      9 C         143.7141  139.3474  160.2508 C.3     1  UNL1        0.1123
     10 H         143.0623  137.2206  158.8129 H       1  UNL1        0.1564
     11 C         142.6487  136.7412  156.7404 C.ar    1  UNL1        0.0516
     12 C         141.2216  136.6352  156.2908 C.ar    1  UNL1        0.0147
     13 C         140.8665  135.7665  155.1207 C.ar    1  UNL1        0.0051
     14 C         141.9385  135.0037  154.4002 C.ar    1  UNL1        0.0715
     15 C         143.3656  135.1097  154.8498 C.ar    1  UNL1        0.0051
     16 C         143.7206  135.9785  156.0199 C.ar    1  UNL1        0.0147
     17 C         141.5833  134.1350  153.2300 C.3     1  UNL1        0.4186
     18 F         141.2282  133.2663  152.0599 F       1  UNL1       -0.1659
     19 F         142.6906  133.1911  153.5947 F       1  UNL1       -0.1659
     20 F         140.4761  135.0789  152.8654 F       1  UNL1       -0.1659
     21 C         144.6904  142.5468  162.3864 C.3     1  UNL1        0.0735
     22 C         143.7833  142.6055  163.5796 C.3     1  UNL1        0.0320
     23 C         144.1885  141.9436  164.8632 C.3     1  UNL1        0.0042
     24 C         143.2814  142.0023  166.0563 C.3     1  UNL1        0.0174
     25 C         141.9689  142.7230  165.9659 C.3     1  UNL1        0.0720
     26 N         141.5637  143.3849  164.6823 N.3     1  UNL1       -0.2739
     27 C         142.4709  143.3262  163.4891 C.3     1  UNL1        0.0734
     28 C         140.2513  144.1056  164.5919 C.3     1  UNL1        0.0576
     29 C         139.2452  144.8765  163.7898 C.3     1  UNL1        0.0173
     30 C         138.9842  144.5829  165.2374 C.3     1  UNL1        0.0173
@<TRIPOS>BOND
     1     1     2    2
     2     2     3   am
     3     3    11    1
     4    11    12   ar
     5    12    13   ar
     6    13    14   ar
     7    14    17    1
     8    17    18    1
     9    17    19    1
    10    17    20    1
    11    14    15   ar
    12    15    16   ar
    13     2     4   am
    14     4     5    1
    15     5     6    1
    16     6     7    1
    17     7    21    1
    18    22    21    1
    19    22    23    1
    20    23    24    1
    21    24    25    1
    22    25    26    1
    23    26    28    1
    24    28    29    1
    25    29    30    1
    26    26    27    1
    27     7     8    1
    28     8     9    1
    29    16    11   ar
    30     9     4    1
    31    27    22    1
    32    30    28    1
    33     3    10    1
@<TRIPOS>MOLECULE
*****
 30 33 0 0 0
SMALL
GASTEIGER

@<TRIPOS>ATOM
      1 O         142.3891  139.8850  164.1335 O.2     1  UNL1       -0.2522
      2 C         141.0715  139.9556  163.4200 C.2     1  UNL1        0.3078
      3 N         139.8488  140.4299  164.1480 N.am    1  UNL1       -0.2681
      4 N         140.9767  139.5520  161.9783 N.am    1  UNL1       -0.2611
      5 C         142.1994  139.0777  161.2503 C.3     1  UNL1        0.1123
      6 C         142.1045  138.6741  159.8088 C.3     1  UNL1        0.0940
      7 N         140.7870  138.7448  159.0953 N.3     1  UNL1       -0.2697
      8 C         139.5643  139.2191  159.8233 C.3     1  UNL1        0.0940
      9 C         139.6591  139.6227  161.2649 C.3     1  UNL1        0.1123
     10 H         138.9841  140.4763  163.6797 H       1  UNL1        0.1564
     11 C         139.9437  140.8335  165.5896 C.ar    1  UNL1        0.0516
     12 C         140.3139  142.2413  165.9515 C.ar    1  UNL1        0.0147
     13 C         140.4087  142.6449  167.3931 C.ar    1  UNL1        0.0051
     14 C         140.1333  141.6406  168.4727 C.ar    1  UNL1        0.0715
     15 C         139.7631  140.2328  168.1108 C.ar    1  UNL1        0.0051
     16 C         139.6683  139.8293  166.6693 C.ar    1  UNL1        0.0147
     17 C         140.2281  142.0443  169.9143 C.3     1  UNL1        0.4186
     18 F         140.3229  142.4479  171.3558 F       1  UNL1       -0.1659
     19 F         140.1293  140.6047  170.3239 F       1  UNL1       -0.1659
     20 F         140.3269  143.4838  169.5047 F       1  UNL1       -0.1659
     21 C         140.6921  138.3412  157.6537 C.3     1  UNL1        0.0735
     22 C         141.8921  137.7772  156.9522 C.3     1  UNL1        0.0320
     23 C         142.7251  138.6561  156.0670 C.3     1  UNL1        0.0042
     24 C         143.9251  138.0921  155.3655 C.3     1  UNL1        0.0174
     25 C         144.2920  136.6493  155.5494 C.3     1  UNL1        0.0720
     26 N         143.4590  135.7705  156.4346 N.3     1  UNL1       -0.2739
     27 C         142.2589  136.3345  157.1361 C.3     1  UNL1        0.0734
     28 C         143.8258  134.3277  156.6185 C.3     1  UNL1        0.0576
     29 C         144.2597  133.2009  157.5084 C.3     1  UNL1        0.0173
     30 C         144.0274  132.9556  156.0469 C.3     1  UNL1        0.0173
@<TRIPOS>BOND
     1     1     2    2
     2     2     3   am
     3     3    11    1
     4    11    12   ar
     5    12    13   ar
     6    13    14   ar
     7    14    17    1
     8    17    18    1
     9    17    19    1
    10    17    20    1
    11    14    15   ar
    12    15    16   ar
    13     2     4   am
    14     4     5    1
    15     5     6    1
    16     6     7    1
    17     7    21    1
    18    22    21    1
    19    22    23    1
    20    23    24    1
    21    24    25    1
    22    25    26    1
    23    26    28    1
    24    28    29    1
    25    29    30    1
    26    26    27    1
    27     7     8    1
    28     8     9    1
    29    16    11   ar
    30     9     4    1
    31    27    22    1
    32    30    28    1
    33     3    10    1
@<TRIPOS>MOLECULE
*****
 30 33 0 0 0
SMALL
GASTEIGER

@<TRIPOS>ATOM
      1 O         142.3098  141.3642  163.6876 O.2     1  UNL1       -0.2522
      2 C         142.2270  139.9393  163.2265 C.2     1  UNL1        0.3078
      3 N         141.8628  138.8565  164.1986 N.am    1  UNL1       -0.2681
      4 N         142.5085  139.5971  161.7934 N.am    1  UNL1       -0.2611
      5 C         142.8727  140.6799  160.8214 C.3     1  UNL1        0.1123
      6 C         143.1542  140.3377  159.3884 C.3     1  UNL1        0.0940
      7 N         143.0714  138.9127  158.9274 N.3     1  UNL1       -0.2697
      8 C         142.7072  137.8299  159.8994 C.3     1  UNL1        0.0940
      9 C         142.4258  138.1721  161.3324 C.3     1  UNL1        0.1123
     10 H         141.8085  137.9212  163.8960 H       1  UNL1        0.1564
     11 C         141.5814  139.1986  165.6317 C.ar    1  UNL1        0.0516
     12 C         142.6940  139.1886  166.6376 C.ar    1  UNL1        0.0147
     13 C         142.4124  139.5307  168.0707 C.ar    1  UNL1        0.0051
     14 C         141.0183  139.8829  168.4977 C.ar    1  UNL1        0.0715
     15 C         139.9057  139.8930  167.4918 C.ar    1  UNL1        0.0051
     16 C         140.1872  139.5508  166.0588 C.ar    1  UNL1        0.0147
     17 C         140.7368  140.2251  169.9309 C.3     1  UNL1        0.4186
     18 F         140.4553  140.5673  171.3639 F       1  UNL1       -0.1659
     19 F         141.8751  139.3493  170.3636 F       1  UNL1       -0.1659
     20 F         139.5986  141.1009  169.4981 F       1  UNL1       -0.1659
     21 C         143.3529  138.5705  157.4942 C.3     1  UNL1        0.0735
     22 C         142.3799  137.7337  156.7179 C.3     1  UNL1        0.0320
     23 C         141.1399  138.3580  156.1499 C.3     1  UNL1        0.0042
     24 C         140.1668  137.5212  155.3736 C.3     1  UNL1        0.0174
     25 C         140.4337  136.0598  155.1652 C.3     1  UNL1        0.0720
     26 N         141.6737  135.4355  155.7331 N.3     1  UNL1       -0.2739
     27 C         142.6468  136.2724  156.5095 C.3     1  UNL1        0.0734
     28 C         141.9406  133.9742  155.5248 C.3     1  UNL1        0.0576
     29 C         142.9097  132.8413  155.3601 C.3     1  UNL1        0.0173
     30 C         141.4337  132.5762  155.3285 C.3     1  UNL1        0.0173
@<TRIPOS>BOND
     1     1     2    2
     2     2     3   am
     3     3    11    1
     4    11    12   ar
     5    12    13   ar
     6    13    14   ar
     7    14    17    1
     8    17    18    1
     9    17    19    1
    10    17    20    1
    11    14    15   ar
    12    15    16   ar
    13     2     4   am
    14     4     5    1
    15     5     6    1
    16     6     7    1
    17     7    21    1
    18    22    21    1
    19    22    23    1
    20    23    24    1
    21    24    25    1
    22    25    26    1
    23    26    28    1
    24    28    29    1
    25    29    30    1
    26    26    27    1
    27     7     8    1
    28     8     9    1
    29    16    11   ar
    30     9     4    1
    31    27    22    1
    32    30    28    1
    33     3    10    1
