@<TRIPOS>MOLECULE
*****
 35 38 0 0 0
SMALL
GASTEIGER

@<TRIPOS>ATOM
      1 C         140.1540  144.4082  163.3397 C.3     1  UNL1        0.1166
      2 N         139.5254  145.1663  164.4711 N.3     1  UNL1       -0.3162
      3 C         140.8725  143.3189  162.6000 C.3     1  UNL1        0.0739
      4 C         141.1137  143.4467  161.1251 C.3     1  UNL1        0.2039
      5 N         140.6364  144.6639  160.3898 N.pl3   1  UNL1       -0.1931
      6 C         139.9178  145.7532  161.1294 C.3     1  UNL1        0.2039
      7 C         139.6767  145.6254  162.6044 C.3     1  UNL1        0.0739
      8 H         139.6226  144.6315  165.3342 H       1  UNL1        0.1192
      9 H         138.5360  145.3147  164.2727 H       1  UNL1        0.1192
     10 C         140.8776  144.7917  158.9148 C.2     1  UNL1        0.3205
     11 N         141.9521  145.7068  158.4071 N.2     1  UNL1        0.0097
     12 C         142.1934  145.8346  156.9322 C.2     1  UNL1        0.4717
     13 N         141.3600  145.0472  155.9649 N.2     1  UNL1        0.0158
     14 C         140.2854  144.1321  156.4726 C.2     1  UNL1        0.3714
     15 N         139.3123  143.2368  155.7645 N.2     1  UNL1       -0.0339
     16 C         138.4697  142.5556  156.8018 C.2     1  UNL1        0.2323
     17 C         138.9220  143.0300  158.1510 C.2     1  UNL1        0.0486
     18 C         140.0442  144.0043  157.9476 C.3     1  UNL1        0.2428
     19 N         141.1386  142.1671  164.2099 N.am    1  UNL1       -0.3011
     20 C         140.4130  143.4543  164.4679 C.2     1  UNL1        0.2352
     21 O         139.9466  143.7876  165.8540 O.2     1  UNL1       -0.2737
     22 H         141.4447  141.9483  163.3002 H       1  UNL1        0.1497
     23 C         141.3977  141.2131  165.3381 C.3     1  UNL1        0.0955
     24 C         140.2930  140.3349  165.8465 C.ar    1  UNL1       -0.0044
     25 C         139.8307  140.4584  167.2682 C.ar    1  UNL1       -0.0018
     26 C         138.7259  139.5803  167.7765 C.ar    1  UNL1        0.0111
     27 C         138.0835  138.5787  166.8632 C.ar    1  UNL1        0.0577
     28 CL        136.9787  137.7005  167.3716 Cl      1  UNL1       -0.0822
     29 C         138.5458  138.4552  165.4416 C.ar    1  UNL1        0.0111
     30 C         139.6505  139.3334  164.9332 C.ar    1  UNL1       -0.0018
     31 C         142.7616  141.1372  165.9579 C.3     1  UNL1        0.0414
     32 C         143.6032  142.3737  166.0722 C.3     1  UNL1        0.0742
     33 C         145.2003  142.0961  164.0420 C.3     1  UNL1        0.0897
     34 N         144.2670  142.9443  164.8541 N.3     1  UNL1       -0.2703
     35 C         143.9975  144.3629  164.4482 C.3     1  UNL1        0.0897
@<TRIPOS>BOND
     1    33    34    1
     2    34    35    1
     3    34    32    1
     4    32    31    1
     5    23    31    1
     6    23    19    1
     7    19    20   am
     8    20    21    2
     9    20     1    1
    10     1     2    1
    11     1     3    1
    12     3     4    1
    13     4     5    1
    14     5    10    1
    15    10    11    2
    16    11    12    1
    17    12    13    2
    18    13    14    1
    19    14    15    2
    20    15    16    1
    21    16    17    2
    22    17    18    1
    23     5     6    1
    24     6     7    1
    25    23    24    1
    26    24    25   ar
    27    25    26   ar
    28    26    27   ar
    29    27    28    1
    30    27    29   ar
    31    29    30   ar
    32     7     1    1
    33    30    24   ar
    34    18    10    1
    35    18    14    1
    36    19    22    1
    37     2     8    1
    38     2     9    1
@<TRIPOS>MOLECULE
*****
 35 38 0 0 0
SMALL
GASTEIGER

@<TRIPOS>ATOM
      1 C         141.6541  144.8408  162.7247 C.3     1  UNL1        0.1166
      2 N         141.2939  145.4368  164.0532 N.3     1  UNL1       -0.3162
      3 C         142.3709  144.0148  161.6981 C.3     1  UNL1        0.0739
      4 C         141.9357  144.0582  160.2634 C.3     1  UNL1        0.2039
      5 N         140.7836  144.9278  159.8551 N.pl3   1  UNL1       -0.1931
      6 C         140.0667  145.7538  160.8816 C.3     1  UNL1        0.2039
      7 C         140.5020  145.7103  162.3164 C.3     1  UNL1        0.0739
      8 H         141.9215  145.0732  164.7704 H       1  UNL1        0.1192
      9 H         140.3320  145.1906  164.2867 H       1  UNL1        0.1192
     10 C         140.3483  144.9712  158.4203 C.2     1  UNL1        0.3205
     11 N         140.7918  146.0986  157.5358 N.2     1  UNL1        0.0097
     12 C         140.3567  146.1421  156.1011 C.2     1  UNL1        0.4717
     13 N         139.4779  145.0581  155.5506 N.2     1  UNL1        0.0158
     14 C         139.0345  143.9307  156.4351 C.2     1  UNL1        0.3714
     15 N         138.1740  142.7299  156.1751 N.2     1  UNL1       -0.0339
     16 C         138.0774  141.9443  157.4492 C.2     1  UNL1        0.2323
     17 C         138.8781  142.6595  158.4967 C.2     1  UNL1        0.0486
     18 C         139.4697  143.8872  157.8699 C.3     1  UNL1        0.2428
     19 N         142.6586  142.6900  163.7805 N.am    1  UNL1       -0.3011
     20 C         142.6811  144.1783  163.5943 C.2     1  UNL1        0.2352
     21 O         143.7305  145.0039  164.2778 O.2     1  UNL1       -0.2737
     22 H         141.9698  142.1482  163.3319 H       1  UNL1        0.1497
     23 C         143.6856  142.0274  164.6501 C.3     1  UNL1        0.0955
     24 C         143.3130  141.5558  166.0244 C.ar    1  UNL1       -0.0044
     25 C         142.9383  140.1208  166.2490 C.ar    1  UNL1       -0.0018
     26 C         142.5658  139.6492  167.6234 C.ar    1  UNL1        0.0111
     27 C         142.5679  140.6127  168.7731 C.ar    1  UNL1        0.0577
     28 CL        142.1953  140.1411  170.1474 Cl      1  UNL1       -0.0822
     29 C         142.9426  142.0476  168.5485 C.ar    1  UNL1        0.0111
     30 C         143.3152  142.5193  167.1741 C.ar    1  UNL1       -0.0018
     31 C         145.0852  141.8363  164.1453 C.3     1  UNL1        0.0414
     32 C         145.3262  141.5537  162.6920 C.3     1  UNL1        0.0742
     33 C         144.1840  139.2216  162.6132 C.3     1  UNL1        0.0897
     34 N         144.4790  140.5458  161.9733 N.3     1  UNL1       -0.2703
     35 C         143.9269  140.8621  160.6150 C.3     1  UNL1        0.0897
@<TRIPOS>BOND
     1    33    34    1
     2    34    35    1
     3    34    32    1
     4    32    31    1
     5    23    31    1
     6    23    19    1
     7    19    20   am
     8    20    21    2
     9    20     1    1
    10     1     2    1
    11     1     3    1
    12     3     4    1
    13     4     5    1
    14     5    10    1
    15    10    11    2
    16    11    12    1
    17    12    13    2
    18    13    14    1
    19    14    15    2
    20    15    16    1
    21    16    17    2
    22    17    18    1
    23     5     6    1
    24     6     7    1
    25    23    24    1
    26    24    25   ar
    27    25    26   ar
    28    26    27   ar
    29    27    28    1
    30    27    29   ar
    31    29    30   ar
    32     7     1    1
    33    30    24   ar
    34    18    10    1
    35    18    14    1
    36    19    22    1
    37     2     8    1
    38     2     9    1
@<TRIPOS>MOLECULE
*****
 35 38 0 0 0
SMALL
GASTEIGER

@<TRIPOS>ATOM
      1 C         141.2476  143.5948  163.4553 C.3     1  UNL1        0.1166
      2 N         140.7185  144.0809  164.7719 N.3     1  UNL1       -0.3162
      3 C         141.9876  142.7545  162.4570 C.3     1  UNL1        0.0739
      4 C         141.9367  143.1029  160.9990 C.3     1  UNL1        0.2039
      5 N         141.1458  144.2917  160.5391 N.pl3   1  UNL1       -0.1931
      6 C         140.4059  145.1320  161.5372 C.3     1  UNL1        0.2039
      7 C         140.4568  144.7835  162.9953 C.3     1  UNL1        0.0739
      8 H         141.0536  143.4722  165.5186 H       1  UNL1        0.1192
      9 H         139.6988  144.0677  164.7543 H       1  UNL1        0.1192
     10 C         141.0950  144.6400  159.0810 C.2     1  UNL1        0.3205
     11 N         142.0905  145.6028  158.5047 N.2     1  UNL1        0.0097
     12 C         142.0396  145.9511  157.0467 C.2     1  UNL1        0.4717
     13 N         140.9932  145.3368  156.1647 N.2     1  UNL1        0.0158
     14 C         139.9977  144.3740  156.7410 C.2     1  UNL1        0.3714
     15 N         138.8608  143.6157  156.1226 N.2     1  UNL1       -0.0339
     16 C         138.2091  142.7987  157.1985 C.2     1  UNL1        0.2323
     17 C         138.9431  143.0520  158.4819 C.2     1  UNL1        0.0486
     18 C         140.0486  144.0257  158.1991 C.3     1  UNL1        0.2428
     19 N         141.3980  141.1474  164.3137 N.am    1  UNL1       -0.3011
     20 C         141.8548  142.5749  164.3724 C.2     1  UNL1        0.2352
     21 O         142.9186  142.9825  165.3482 O.2     1  UNL1       -0.2737
     22 H         140.6998  140.8799  163.6733 H       1  UNL1        0.1497
     23 C         142.0051  140.1274  165.2309 C.3     1  UNL1        0.0955
     24 C         141.5694  140.0540  166.6643 C.ar    1  UNL1       -0.0044
     25 C         140.1351  140.3033  167.0259 C.ar    1  UNL1       -0.0018
     26 C         139.6994  140.2299  168.4594 C.ar    1  UNL1        0.0111
     27 C         140.6980  139.9072  169.5311 C.ar    1  UNL1        0.0577
     28 CL        140.2622  139.8338  170.9646 Cl      1  UNL1       -0.0822
     29 C         142.1322  139.6579  169.1696 C.ar    1  UNL1        0.0111
     30 C         142.5680  139.7313  167.7361 C.ar    1  UNL1       -0.0018
     31 C         143.0478  139.1808  164.7145 C.3     1  UNL1        0.0414
     32 C         144.4647  139.6442  164.5476 C.3     1  UNL1        0.0742
     33 C         144.3571  140.0704  161.9870 C.3     1  UNL1        0.0897
     34 N         144.8510  140.4592  163.3490 N.3     1  UNL1       -0.2703
     35 C         145.7310  141.6628  163.5124 C.3     1  UNL1        0.0897
@<TRIPOS>BOND
     1    33    34    1
     2    34    35    1
     3    34    32    1
     4    32    31    1
     5    23    31    1
     6    23    19    1
     7    19    20   am
     8    20    21    2
     9    20     1    1
    10     1     2    1
    11     1     3    1
    12     3     4    1
    13     4     5    1
    14     5    10    1
    15    10    11    2
    16    11    12    1
    17    12    13    2
    18    13    14    1
    19    14    15    2
    20    15    16    1
    21    16    17    2
    22    17    18    1
    23     5     6    1
    24     6     7    1
    25    23    24    1
    26    24    25   ar
    27    25    26   ar
    28    26    27   ar
    29    27    28    1
    30    27    29   ar
    31    29    30   ar
    32     7     1    1
    33    30    24   ar
    34    18    10    1
    35    18    14    1
    36    19    22    1
    37     2     8    1
    38     2     9    1
@<TRIPOS>MOLECULE
*****
 35 38 0 0 0
SMALL
GASTEIGER

@<TRIPOS>ATOM
      1 C         140.6355  138.2294  161.6792 C.3     1  UNL1        0.1166
      2 N         139.3740  138.2631  162.4898 N.3     1  UNL1       -0.3162
      3 C         142.0974  138.1681  161.3486 C.3     1  UNL1        0.0739
      4 C         142.5445  138.1979  159.9172 C.3     1  UNL1        0.2039
      5 N         141.5298  138.2890  158.8162 N.pl3   1  UNL1       -0.1931
      6 C         140.0679  138.3503  159.1467 C.3     1  UNL1        0.2039
      7 C         139.6209  138.3205  160.5783 C.3     1  UNL1        0.0739
      8 H         139.6059  138.2153  163.4820 H       1  UNL1        0.1192
      9 H         138.7873  137.4673  162.2391 H       1  UNL1        0.1192
     10 C         141.9769  138.3188  157.3847 C.2     1  UNL1        0.3205
     11 N         141.7477  139.5457  156.5527 N.2     1  UNL1        0.0097
     12 C         142.1949  139.5755  155.1213 C.2     1  UNL1        0.4717
     13 N         142.8713  138.3784  154.5217 N.2     1  UNL1        0.0158
     14 C         143.1005  137.1515  155.3537 C.2     1  UNL1        0.3714
     15 N         143.7360  135.8297  155.0389 N.2     1  UNL1       -0.0339
     16 C         143.6815  134.9830  156.2758 C.2     1  UNL1        0.2323
     17 C         143.0124  135.7815  157.3551 C.2     1  UNL1        0.0486
     18 C         142.6533  137.1217  156.7852 C.3     1  UNL1        0.2428
     19 N         141.8010  139.3731  163.7000 N.am    1  UNL1       -0.3011
     20 C         141.2121  138.1500  163.0617 C.2     1  UNL1        0.2352
     21 O         141.2000  136.8477  163.8058 O.2     1  UNL1       -0.2737
     22 H         141.8089  140.2279  163.2115 H       1  UNL1        0.1497
     23 C         142.3776  139.2938  165.0824 C.3     1  UNL1        0.0955
     24 C         141.5044  139.5489  166.2751 C.ar    1  UNL1       -0.0044
     25 C         140.0117  139.5397  166.1274 C.ar    1  UNL1       -0.0018
     26 C         139.1385  139.7949  167.3200 C.ar    1  UNL1        0.0111
     27 C         139.7580  140.0592  168.6603 C.ar    1  UNL1        0.0577
     28 CL        138.8847  140.3144  169.8529 Cl      1  UNL1       -0.0822
     29 C         141.2506  140.0685  168.8080 C.ar    1  UNL1        0.0111
     30 C         142.1239  139.8133  167.6153 C.ar    1  UNL1       -0.0018
     31 C         143.8275  138.9593  165.2722 C.3     1  UNL1        0.0414
     32 C         144.8277  139.3340  164.2190 C.3     1  UNL1        0.0742
     33 C         144.6355  140.7810  162.0698 C.3     1  UNL1        0.0897
     34 N         144.7558  140.6804  163.5616 N.3     1  UNL1       -0.2703
     35 C         144.8042  141.9260  164.3959 C.3     1  UNL1        0.0897
@<TRIPOS>BOND
     1    33    34    1
     2    34    35    1
     3    34    32    1
     4    32    31    1
     5    23    31    1
     6    23    19    1
     7    19    20   am
     8    20    21    2
     9    20     1    1
    10     1     2    1
    11     1     3    1
    12     3     4    1
    13     4     5    1
    14     5    10    1
    15    10    11    2
    16    11    12    1
    17    12    13    2
    18    13    14    1
    19    14    15    2
    20    15    16    1
    21    16    17    2
    22    17    18    1
    23     5     6    1
    24     6     7    1
    25    23    24    1
    26    24    25   ar
    27    25    26   ar
    28    26    27   ar
    29    27    28    1
    30    27    29   ar
    31    29    30   ar
    32     7     1    1
    33    30    24   ar
    34    18    10    1
    35    18    14    1
    36    19    22    1
    37     2     8    1
    38     2     9    1
@<TRIPOS>MOLECULE
*****
 35 38 0 0 0
SMALL
GASTEIGER

@<TRIPOS>ATOM
      1 C         144.2880  141.0079  162.9085 C.3     1  UNL1        0.1166
      2 N         145.3549  141.0900  163.9596 N.3     1  UNL1       -0.3162
      3 C         143.0372  140.5792  162.2001 C.3     1  UNL1        0.0739
      4 C         142.6863  141.1769  160.8699 C.3     1  UNL1        0.2039
      5 N         143.5862  142.2033  160.2479 N.pl3   1  UNL1       -0.1931
      6 C         144.8370  142.6320  160.9563 C.3     1  UNL1        0.2039
      7 C         145.1879  142.0342  162.2866 C.3     1  UNL1        0.0739
      8 H         145.1315  140.4497  164.7216 H       1  UNL1        0.1192
      9 H         145.4046  142.0430  164.3198 H       1  UNL1        0.1192
     10 C         143.2353  142.8010  158.9177 C.2     1  UNL1        0.3205
     11 N         143.9237  142.3206  157.6745 N.2     1  UNL1        0.0097
     12 C         143.5728  142.9183  156.3443 C.2     1  UNL1        0.4717
     13 N         142.5335  143.9964  156.2571 N.2     1  UNL1        0.0158
     14 C         141.8452  144.4768  157.5002 C.2     1  UNL1        0.3714
     15 N         140.7881  145.5173  157.7238 N.2     1  UNL1       -0.0339
     16 C         140.4857  145.5626  159.1923 C.2     1  UNL1        0.2323
     17 C         141.3558  144.5502  159.8763 C.2     1  UNL1        0.0486
     18 C         142.1961  143.8791  158.8305 C.3     1  UNL1        0.2428
     19 N         142.2843  139.9256  164.1590 N.am    1  UNL1       -0.3011
     20 C         143.7586  140.0100  163.8954 C.2     1  UNL1        0.2352
     21 O         144.7033  139.0967  164.6187 O.2     1  UNL1       -0.2737
     22 H         141.6642  140.5251  163.6842 H       1  UNL1        0.1497
     23 C         141.7548  138.9278  165.1459 C.3     1  UNL1        0.0955
     24 C         141.5263  139.3322  166.5721 C.ar    1  UNL1       -0.0044
     25 C         142.6571  139.2812  167.5565 C.ar    1  UNL1       -0.0018
     26 C         142.4286  139.6856  168.9827 C.ar    1  UNL1        0.0111
     27 C         141.0695  140.1410  169.4246 C.ar    1  UNL1        0.0577
     28 CL        140.8411  140.5455  170.8510 Cl      1  UNL1       -0.0822
     29 C         139.9388  140.1921  168.4404 C.ar    1  UNL1        0.0111
     30 C         140.1672  139.7876  167.0140 C.ar    1  UNL1       -0.0018
     31 C         141.4537  137.5255  164.7065 C.3     1  UNL1        0.0414
     32 C         141.2424  137.2243  163.2522 C.3     1  UNL1        0.0742
     33 C         140.2582  138.3225  161.1133 C.3     1  UNL1        0.0897
     34 N         140.0835  137.8341  162.5207 N.3     1  UNL1       -0.2703
     35 C         138.7499  137.9553  163.1967 C.3     1  UNL1        0.0897
@<TRIPOS>BOND
     1    33    34    1
     2    34    35    1
     3    34    32    1
     4    32    31    1
     5    23    31    1
     6    23    19    1
     7    19    20   am
     8    20    21    2
     9    20     1    1
    10     1     2    1
    11     1     3    1
    12     3     4    1
    13     4     5    1
    14     5    10    1
    15    10    11    2
    16    11    12    1
    17    12    13    2
    18    13    14    1
    19    14    15    2
    20    15    16    1
    21    16    17    2
    22    17    18    1
    23     5     6    1
    24     6     7    1
    25    23    24    1
    26    24    25   ar
    27    25    26   ar
    28    26    27   ar
    29    27    28    1
    30    27    29   ar
    31    29    30   ar
    32     7     1    1
    33    30    24   ar
    34    18    10    1
    35    18    14    1
    36    19    22    1
    37     2     8    1
    38     2     9    1
@<TRIPOS>MOLECULE
*****
 35 38 0 0 0
SMALL
GASTEIGER

@<TRIPOS>ATOM
      1 C         142.9162  139.9371  164.0550 C.3     1  UNL1        0.1166
      2 N         143.2659  138.6604  163.3498 N.3     1  UNL1       -0.3162
      3 C         142.5378  141.3734  164.2652 C.3     1  UNL1        0.0739
      4 C         142.3635  141.9073  165.6560 C.3     1  UNL1        0.2039
      5 N         142.5675  141.0049  166.8369 N.pl3   1  UNL1       -0.1931
      6 C         142.9459  139.5687  166.6268 C.3     1  UNL1        0.2039
      7 C         143.1202  139.0349  165.2358 C.3     1  UNL1        0.0739
      8 H         143.2519  138.8140  162.3416 H       1  UNL1        0.1192
      9 H         142.5860  137.9401  163.5935 H       1  UNL1        0.1192
     10 C         142.3931  141.5388  168.2277 C.2     1  UNL1        0.3205
     11 N         143.4564  142.4030  168.8382 N.2     1  UNL1        0.0097
     12 C         143.2820  142.9369  170.2290 C.2     1  UNL1        0.4717
     13 N         142.0443  142.6067  171.0095 N.2     1  UNL1        0.0158
     14 C         140.9810  141.7425  170.3991 C.2     1  UNL1        0.3714
     15 N         139.6637  141.2517  170.9223 N.2     1  UNL1       -0.0339
     16 C         139.0239  140.4144  169.8547 C.2     1  UNL1        0.2323
     17 C         139.9458  140.3878  168.6717 C.2     1  UNL1        0.0486
     18 C         141.1554  141.2086  169.0082 C.3     1  UNL1        0.2428
     19 N         144.0544  140.3608  161.7583 N.am    1  UNL1       -0.3011
     20 C         142.8337  140.3961  162.6294 C.2     1  UNL1        0.2352
     21 O         141.5305  140.8903  162.0748 O.2     1  UNL1       -0.2737
     22 H         144.9096  140.0365  162.1224 H       1  UNL1        0.1497
     23 C         143.9719  140.8197  160.3326 C.3     1  UNL1        0.0955
     24 C         143.5786  139.8532  159.2552 C.ar    1  UNL1       -0.0044
     25 C         143.0552  138.4956  159.6200 C.ar    1  UNL1       -0.0018
     26 C         142.6619  137.5290  158.5425 C.ar    1  UNL1        0.0111
     27 C         142.7919  137.9200  157.1002 C.ar    1  UNL1        0.0577
     28 CL        142.3986  136.9533  156.0227 Cl      1  UNL1       -0.0822
     29 C         143.3153  139.2775  156.7354 C.ar    1  UNL1        0.0111
     30 C         143.7086  140.2442  157.8129 C.ar    1  UNL1       -0.0018
     31 C         144.2827  142.2453  159.9845 C.3     1  UNL1        0.0414
     32 C         143.2561  143.3145  160.2145 C.3     1  UNL1        0.0742
     33 C         144.3095  144.0190  162.4824 C.3     1  UNL1        0.0897
     34 N         143.1228  143.9475  161.5679 N.3     1  UNL1       -0.2703
     35 C         141.8028  144.5090  162.0066 C.3     1  UNL1        0.0897
@<TRIPOS>BOND
     1    33    34    1
     2    34    35    1
     3    34    32    1
     4    32    31    1
     5    23    31    1
     6    23    19    1
     7    19    20   am
     8    20    21    2
     9    20     1    1
    10     1     2    1
    11     1     3    1
    12     3     4    1
    13     4     5    1
    14     5    10    1
    15    10    11    2
    16    11    12    1
    17    12    13    2
    18    13    14    1
    19    14    15    2
    20    15    16    1
    21    16    17    2
    22    17    18    1
    23     5     6    1
    24     6     7    1
    25    23    24    1
    26    24    25   ar
    27    25    26   ar
    28    26    27   ar
    29    27    28    1
    30    27    29   ar
    31    29    30   ar
    32     7     1    1
    33    30    24   ar
    34    18    10    1
    35    18    14    1
    36    19    22    1
    37     2     8    1
    38     2     9    1
@<TRIPOS>MOLECULE
*****
 35 38 0 0 0
SMALL
GASTEIGER

@<TRIPOS>ATOM
      1 C         142.7374  139.4507  163.1700 C.3     1  UNL1        0.1166
      2 N         143.3438  138.7967  164.3760 N.3     1  UNL1       -0.3162
      3 C         141.8295  140.3068  162.3376 C.3     1  UNL1        0.0739
      4 C         142.0001  140.3536  160.8481 C.3     1  UNL1        0.2039
      5 N         143.0785  139.5442  160.1909 N.pl3   1  UNL1       -0.1931
      6 C         143.9864  138.6880  161.0232 C.3     1  UNL1        0.2039
      7 C         143.8158  138.6413  162.5128 C.3     1  UNL1        0.0739
      8 H         142.8478  139.1015  165.2135 H       1  UNL1        0.1192
      9 H         144.3265  139.0607  164.4478 H       1  UNL1        0.1192
     10 C         143.2491  139.5910  158.7013 C.2     1  UNL1        0.3205
     11 N         144.4221  140.3092  158.1029 N.2     1  UNL1        0.0097
     12 C         144.5927  140.3560  156.6135 C.2     1  UNL1        0.4717
     13 N         143.5902  139.6846  155.7222 N.2     1  UNL1        0.0158
     14 C         142.4171  138.9664  156.3206 C.2     1  UNL1        0.3714
     15 N         141.2752  138.2179  155.6996 N.2     1  UNL1       -0.0339
     16 C         140.3989  137.7084  156.8053 C.2     1  UNL1        0.2323
     17 C         140.9992  138.1421  158.1097 C.2     1  UNL1        0.0486
     18 C         142.2465  138.9196  157.8102 C.3     1  UNL1        0.2428
     19 N         141.4350  139.1813  165.4018 N.am    1  UNL1       -0.3011
     20 C         141.8696  140.0330  164.2460 C.2     1  UNL1        0.2352
     21 O         141.4363  141.4668  164.1662 O.2     1  UNL1       -0.2737
     22 H         141.7194  138.2403  165.4542 H       1  UNL1        0.1497
     23 C         140.5672  139.7636  166.4779 C.3     1  UNL1        0.0955
     24 C         141.1677  140.6513  167.5273 C.ar    1  UNL1       -0.0044
     25 C         142.4563  140.2636  168.1899 C.ar    1  UNL1       -0.0018
     26 C         143.0568  141.1514  169.2393 C.ar    1  UNL1        0.0111
     27 C         142.3686  142.4269  169.6261 C.ar    1  UNL1        0.0577
     28 CL        142.9692  143.3147  170.6756 Cl      1  UNL1       -0.0822
     29 C         141.0800  142.8146  168.9635 C.ar    1  UNL1        0.0111
     30 C         140.4794  141.9268  167.9141 C.ar    1  UNL1       -0.0018
     31 C         139.0989  139.4580  166.5045 C.3     1  UNL1        0.0414
     32 C         138.5197  138.4748  165.5308 C.3     1  UNL1        0.0742
     33 C         138.1702  140.1240  163.5540 C.3     1  UNL1        0.0897
     34 N         138.5565  138.7658  164.0597 N.3     1  UNL1       -0.2703
     35 C         138.9797  137.6985  163.0945 C.3     1  UNL1        0.0897
@<TRIPOS>BOND
     1    33    34    1
     2    34    35    1
     3    34    32    1
     4    32    31    1
     5    23    31    1
     6    23    19    1
     7    19    20   am
     8    20    21    2
     9    20     1    1
    10     1     2    1
    11     1     3    1
    12     3     4    1
    13     4     5    1
    14     5    10    1
    15    10    11    2
    16    11    12    1
    17    12    13    2
    18    13    14    1
    19    14    15    2
    20    15    16    1
    21    16    17    2
    22    17    18    1
    23     5     6    1
    24     6     7    1
    25    23    24    1
    26    24    25   ar
    27    25    26   ar
    28    26    27   ar
    29    27    28    1
    30    27    29   ar
    31    29    30   ar
    32     7     1    1
    33    30    24   ar
    34    18    10    1
    35    18    14    1
    36    19    22    1
    37     2     8    1
    38     2     9    1
@<TRIPOS>MOLECULE
*****
 35 38 0 0 0
SMALL
GASTEIGER

@<TRIPOS>ATOM
      1 C         138.8739  141.4985  163.4495 C.3     1  UNL1        0.1166
      2 N         137.7470  141.1722  164.3841 N.3     1  UNL1       -0.3162
      3 C         140.2616  141.5654  162.8839 C.3     1  UNL1        0.0739
      4 C         140.5072  142.2657  161.5804 C.3     1  UNL1        0.2039
      5 N         139.3651  142.8991  160.8424 N.pl3   1  UNL1       -0.1931
      6 C         137.9775  142.8322  161.4080 C.3     1  UNL1        0.2039
      7 C         137.7319  142.1319  162.7116 C.3     1  UNL1        0.0739
      8 H         138.1076  140.6491  165.1820 H       1  UNL1        0.1192
      9 H         137.0515  140.6092  163.8946 H       1  UNL1        0.1192
     10 C         139.6108  143.5994  159.5389 C.2     1  UNL1        0.3205
     11 N         140.0052  145.0466  159.5276 N.2     1  UNL1        0.0097
     12 C         140.2509  145.7469  158.2242 C.2     1  UNL1        0.4717
     13 N         140.1021  145.0001  156.9318 N.2     1  UNL1        0.0158
     14 C         139.7076  143.5529  156.9430 C.2     1  UNL1        0.3714
     15 N         139.4853  142.5647  155.8367 N.2     1  UNL1       -0.0339
     16 C         139.1022  141.2536  156.4566 C.2     1  UNL1        0.2323
     17 C         139.0878  141.4315  157.9459 C.2     1  UNL1        0.0486
     18 C         139.4620  142.8526  158.2465 C.3     1  UNL1        0.2428
     19 N         141.0535  140.3567  164.2834 N.am    1  UNL1       -0.3011
     20 C         139.6246  140.7518  164.5120 C.2     1  UNL1        0.2352
     21 O         138.9465  140.4002  165.8029 O.2     1  UNL1       -0.2737
     22 H         141.4985  140.5874  163.4361 H       1  UNL1        0.1497
     23 C         141.8043  139.6100  165.3459 C.3     1  UNL1        0.0955
     24 C         142.2939  140.3319  166.5661 C.ar    1  UNL1       -0.0044
     25 C         142.7813  141.7463  166.4558 C.ar    1  UNL1       -0.0018
     26 C         143.2709  142.4682  167.6760 C.ar    1  UNL1        0.0111
     27 C         143.2731  141.7758  169.0067 C.ar    1  UNL1        0.0577
     28 CL        143.7627  142.4978  170.2270 Cl      1  UNL1       -0.0822
     29 C         142.7857  140.3615  169.1171 C.ar    1  UNL1        0.0111
     30 C         142.2961  139.6395  167.8968 C.ar    1  UNL1       -0.0018
     31 C         142.0655  138.1413  165.1880 C.3     1  UNL1        0.0414
     32 C         141.0315  137.2598  164.5525 C.3     1  UNL1        0.0742
     33 C         141.5749  137.6853  162.0478 C.3     1  UNL1        0.0897
     34 N         140.5705  137.5341  163.1516 N.3     1  UNL1       -0.2703
     35 C         139.1054  137.6573  162.8547 C.3     1  UNL1        0.0897
@<TRIPOS>BOND
     1    33    34    1
     2    34    35    1
     3    34    32    1
     4    32    31    1
     5    23    31    1
     6    23    19    1
     7    19    20   am
     8    20    21    2
     9    20     1    1
    10     1     2    1
    11     1     3    1
    12     3     4    1
    13     4     5    1
    14     5    10    1
    15    10    11    2
    16    11    12    1
    17    12    13    2
    18    13    14    1
    19    14    15    2
    20    15    16    1
    21    16    17    2
    22    17    18    1
    23     5     6    1
    24     6     7    1
    25    23    24    1
    26    24    25   ar
    27    25    26   ar
    28    26    27   ar
    29    27    28    1
    30    27    29   ar
    31    29    30   ar
    32     7     1    1
    33    30    24   ar
    34    18    10    1
    35    18    14    1
    36    19    22    1
    37     2     8    1
    38     2     9    1
@<TRIPOS>MOLECULE
*****
 35 38 0 0 0
SMALL
GASTEIGER

@<TRIPOS>ATOM
      1 C         143.6838  140.1551  164.1407 C.3     1  UNL1        0.1166
      2 N         144.6768  139.2087  163.5341 N.3     1  UNL1       -0.3162
      3 C         142.7672  141.3335  164.2873 C.3     1  UNL1        0.0739
      4 C         141.9754  141.5155  165.5481 C.3     1  UNL1        0.2039
      5 N         142.1003  140.5192  166.6626 N.pl3   1  UNL1       -0.1931
      6 C         143.0169  139.3410  166.5162 C.3     1  UNL1        0.2039
      7 C         143.8087  139.1590  165.2552 C.3     1  UNL1        0.0739
      8 H         144.9329  139.5357  162.6025 H       1  UNL1        0.1192
      9 H         144.2628  138.2790  163.4662 H       1  UNL1        0.1192
     10 C         141.3085  140.7013  167.9236 C.2     1  UNL1        0.3205
     11 N         139.9799  140.0227  168.0795 N.2     1  UNL1        0.0097
     12 C         139.1882  140.2048  169.3403 C.2     1  UNL1        0.4717
     13 N         139.7249  141.0655  170.4454 N.2     1  UNL1        0.0158
     14 C         141.0535  141.7441  170.2895 C.2     1  UNL1        0.3714
     15 N         141.8331  142.6456  171.2003 N.2     1  UNL1       -0.0339
     16 C         143.1067  143.0207  170.5023 C.2     1  UNL1        0.2323
     17 C         143.1142  142.3510  169.1601 C.2     1  UNL1        0.0486
     18 C         141.8453  141.5620  169.0286 C.3     1  UNL1        0.2428
     19 N         142.7290  141.2669  161.9955 N.am    1  UNL1       -0.3011
     20 C         143.9038  140.8227  162.8156 C.2     1  UNL1        0.2352
     21 O         145.2984  141.0460  162.3106 O.2     1  UNL1       -0.2737
     22 H         141.8136  141.1204  162.3270 H       1  UNL1        0.1497
     23 C         142.9489  141.9345  160.6704 C.3     1  UNL1        0.0955
     24 C         143.1425  141.1051  159.4357 C.ar    1  UNL1       -0.0044
     25 C         144.2203  141.4604  158.4548 C.ar    1  UNL1       -0.0018
     26 C         144.4138  140.6310  157.2201 C.ar    1  UNL1        0.0111
     27 C         143.5296  139.4462  156.9663 C.ar    1  UNL1        0.0577
     28 CL        143.7232  138.6167  155.7315 Cl      1  UNL1       -0.0822
     29 C         142.4518  139.0908  157.9471 C.ar    1  UNL1        0.0111
     30 C         142.2582  139.9203  159.1819 C.ar    1  UNL1       -0.0018
     31 C         142.9752  143.4316  160.5800 C.3     1  UNL1        0.0414
     32 C         142.0376  144.2501  161.4173 C.3     1  UNL1        0.0742
     33 C         141.3177  144.7715  163.8586 C.3     1  UNL1        0.0897
     34 N         142.3976  144.5878  162.8338 N.3     1  UNL1       -0.2703
     35 C         143.8373  144.7417  163.2255 C.3     1  UNL1        0.0897
@<TRIPOS>BOND
     1    33    34    1
     2    34    35    1
     3    34    32    1
     4    32    31    1
     5    23    31    1
     6    23    19    1
     7    19    20   am
     8    20    21    2
     9    20     1    1
    10     1     2    1
    11     1     3    1
    12     3     4    1
    13     4     5    1
    14     5    10    1
    15    10    11    2
    16    11    12    1
    17    12    13    2
    18    13    14    1
    19    14    15    2
    20    15    16    1
    21    16    17    2
    22    17    18    1
    23     5     6    1
    24     6     7    1
    25    23    24    1
    26    24    25   ar
    27    25    26   ar
    28    26    27   ar
    29    27    28    1
    30    27    29   ar
    31    29    30   ar
    32     7     1    1
    33    30    24   ar
    34    18    10    1
    35    18    14    1
    36    19    22    1
    37     2     8    1
    38     2     9    1
