@<TRIPOS>MOLECULE
*****
 33 36 0 0 0
SMALL
GASTEIGER

@<TRIPOS>ATOM
      1 C         141.2814  144.1405  164.3228 C.ar    1  UNL1        0.1387
      2 C         142.6716  143.5946  164.4614 C.ar    1  UNL1        0.0384
      3 C         142.9737  142.5705  165.5149 C.ar    1  UNL1        0.0207
      4 C         141.8855  142.0922  166.4298 C.ar    1  UNL1        0.0671
      5 C         140.4952  142.6381  166.2913 C.ar    1  UNL1        0.0207
      6 C         140.1932  143.6622  165.2378 C.ar    1  UNL1        0.0384
      7 N         142.1876  141.0681  167.4834 N.ar    1  UNL1       -0.2729
      8 C         142.6475  139.6967  167.0862 C.ar    1  UNL1        0.0860
      9 C         142.9496  138.6725  168.1398 C.ar    1  UNL1        0.0561
     10 C         142.7917  139.0198  169.5905 C.ar    1  UNL1        0.1453
     11 C         142.3318  140.3913  169.9876 C.ar    1  UNL1        0.0980
     12 C         142.0297  141.4154  168.9341 C.ar    1  UNL1        0.2679
     13 O         141.5698  142.7868  169.3312 O.2     1  UNL1       -0.2665
     14 O         143.0938  137.9958  170.6440 O.3     1  UNL1       -0.4704
     15 C         144.0511  136.8787  170.3514 C.3     1  UNL1        0.2320
     16 C         144.8679  136.2815  171.4588 C.ar    1  UNL1        0.0212
     17 C         144.7759  134.8130  171.7507 C.ar    1  UNL1       -0.0007
     18 C         145.5927  134.2159  172.8580 C.ar    1  UNL1       -0.0002
     19 C         146.5015  135.0872  173.6735 C.ar    1  UNL1       -0.0000
     20 C         146.5935  136.5556  173.3816 C.ar    1  UNL1       -0.0002
     21 C         145.7767  137.1528  172.2743 C.ar    1  UNL1       -0.0007
     22 O         140.9793  145.1646  163.2693 O.3     1  UNL1       -0.4740
     23 C         140.9518  144.7674  161.8231 C.3     1  UNL1        0.2227
     24 C         139.6447  144.4607  161.1542 C.3     1  UNL1        0.1203
     25 C         137.7080  144.5488  162.8837 C.3     1  UNL1        0.0900
     26 N         138.5541  143.7715  161.9195 N.3     1  UNL1       -0.2646
     27 C         138.3097  142.3050  161.7204 C.3     1  UNL1        0.0993
     28 C         138.8063  141.3175  162.7344 C.ar    1  UNL1       -0.0061
     29 C         137.8713  140.7768  163.7752 C.ar    1  UNL1       -0.0029
     30 C         138.3679  139.7892  164.7892 C.ar    1  UNL1       -0.0003
     31 C         139.7996  139.3424  164.7623 C.ar    1  UNL1       -0.0000
     32 C         140.7346  139.8832  163.7215 C.ar    1  UNL1       -0.0003
     33 C         140.2380  140.8707  162.7076 C.ar    1  UNL1       -0.0029
@<TRIPOS>BOND
     1    25    26    1
     2    26    24    1
     3    24    23    1
     4    23    22    1
     5    22     1    1
     6     1     2   ar
     7     2     3   ar
     8     3     4   ar
     9     4     7    1
    10     7     8   ar
    11     8     9   ar
    12     9    10   ar
    13    10    14    1
    14    14    15    1
    15    15    16    1
    16    16    17   ar
    17    17    18   ar
    18    18    19   ar
    19    19    20   ar
    20    20    21   ar
    21    10    11   ar
    22    11    12   ar
    23    12    13    2
    24     4     5   ar
    25     5     6   ar
    26    26    27    1
    27    27    28    1
    28    28    29   ar
    29    29    30   ar
    30    30    31   ar
    31    31    32   ar
    32    32    33   ar
    33     6     1   ar
    34    33    28   ar
    35    12     7   ar
    36    21    16   ar
@<TRIPOS>MOLECULE
*****
 33 36 0 0 0
SMALL
GASTEIGER

@<TRIPOS>ATOM
      1 C         138.8239  139.8276  168.3206 C.ar    1  UNL1        0.1387
      2 C         137.9281  138.7951  167.7030 C.ar    1  UNL1        0.0384
      3 C         137.8126  138.6985  166.2106 C.ar    1  UNL1        0.0207
      4 C         138.5929  139.6344  165.3358 C.ar    1  UNL1        0.0671
      5 C         139.4887  140.6669  165.9534 C.ar    1  UNL1        0.0207
      6 C         139.6042  140.7635  167.4458 C.ar    1  UNL1        0.0384
      7 N         138.4774  139.5377  163.8433 N.ar    1  UNL1       -0.2729
      8 C         138.9794  138.3176  163.1297 C.ar    1  UNL1        0.0860
      9 C         138.8639  138.2209  161.6372 C.ar    1  UNL1        0.0561
     10 C         138.2463  139.3444  160.8585 C.ar    1  UNL1        0.1453
     11 C         137.7443  140.5645  161.5722 C.ar    1  UNL1        0.0980
     12 C         137.8598  140.6612  163.0646 C.ar    1  UNL1        0.2679
     13 O         137.3578  141.8813  163.7783 O.2     1  UNL1       -0.2665
     14 O         138.1308  139.2478  159.3661 O.3     1  UNL1       -0.4704
     15 C         139.2533  139.7273  158.4944 C.3     1  UNL1        0.2320
     16 C         140.3524  138.7852  158.1009 C.ar    1  UNL1        0.0212
     17 C         140.1990  137.9197  156.8855 C.ar    1  UNL1       -0.0007
     18 C         141.2980  136.9777  156.4921 C.ar    1  UNL1       -0.0002
     19 C         142.5504  136.9013  157.3141 C.ar    1  UNL1       -0.0000
     20 C         142.7037  137.7668  158.5296 C.ar    1  UNL1       -0.0002
     21 C         141.6047  138.7088  158.9230 C.ar    1  UNL1       -0.0007
     22 O         138.9394  139.9243  169.8131 O.3     1  UNL1       -0.4740
     23 C         140.2920  139.9349  170.4615 C.3     1  UNL1        0.2227
     24 C         140.8419  141.2101  171.0285 C.3     1  UNL1        0.1203
     25 C         140.8750  143.5134  169.8271 C.3     1  UNL1        0.0900
     26 N         141.5266  142.1967  170.1297 N.3     1  UNL1       -0.2646
     27 C         142.8628  141.8665  169.5335 C.3     1  UNL1        0.0993
     28 C         142.9433  141.2499  168.1684 C.ar    1  UNL1       -0.0061
     29 C         143.0967  142.1235  166.9587 C.ar    1  UNL1       -0.0029
     30 C         143.1772  141.5069  165.5937 C.ar    1  UNL1       -0.0003
     31 C         143.1043  140.0167  165.4383 C.ar    1  UNL1       -0.0000
     32 C         142.9509  139.1432  166.6480 C.ar    1  UNL1       -0.0003
     33 C         142.8704  139.7597  168.0130 C.ar    1  UNL1       -0.0029
@<TRIPOS>BOND
     1    25    26    1
     2    26    24    1
     3    24    23    1
     4    23    22    1
     5    22     1    1
     6     1     2   ar
     7     2     3   ar
     8     3     4   ar
     9     4     7    1
    10     7     8   ar
    11     8     9   ar
    12     9    10   ar
    13    10    14    1
    14    14    15    1
    15    15    16    1
    16    16    17   ar
    17    17    18   ar
    18    18    19   ar
    19    19    20   ar
    20    20    21   ar
    21    10    11   ar
    22    11    12   ar
    23    12    13    2
    24     4     5   ar
    25     5     6   ar
    26    26    27    1
    27    27    28    1
    28    28    29   ar
    29    29    30   ar
    30    30    31   ar
    31    31    32   ar
    32    32    33   ar
    33     6     1   ar
    34    33    28   ar
    35    12     7   ar
    36    21    16   ar
@<TRIPOS>MOLECULE
*****
 33 36 0 0 0
SMALL
GASTEIGER

@<TRIPOS>ATOM
      1 C         139.1894  139.2196  165.5612 C.ar    1  UNL1        0.1387
      2 C         139.2650  137.8294  165.0029 C.ar    1  UNL1        0.0384
      3 C         139.7206  137.6123  163.5904 C.ar    1  UNL1        0.0207
      4 C         140.1006  138.7852  162.7362 C.ar    1  UNL1        0.0671
      5 C         140.0249  140.1754  163.2944 C.ar    1  UNL1        0.0207
      6 C         139.5693  140.3926  164.7069 C.ar    1  UNL1        0.0384
      7 N         140.5563  138.5680  161.3236 N.ar    1  UNL1       -0.2729
      8 C         139.5967  138.7638  160.1875 C.ar    1  UNL1        0.0860
      9 C         140.0523  138.5466  158.7749 C.ar    1  UNL1        0.0561
     10 C         141.4676  138.1335  158.4986 C.ar    1  UNL1        0.1453
     11 C         142.4272  137.9376  159.6348 C.ar    1  UNL1        0.0980
     12 C         141.9715  138.1548  161.0472 C.ar    1  UNL1        0.2679
     13 O         142.9311  137.9590  162.1834 O.2     1  UNL1       -0.2665
     14 O         141.9232  137.9162  157.0861 O.3     1  UNL1       -0.4704
     15 C         143.0392  136.9564  156.7973 C.3     1  UNL1        0.2320
     16 C         142.7353  135.5128  156.5256 C.ar    1  UNL1        0.0212
     17 C         141.7185  135.1430  155.4867 C.ar    1  UNL1       -0.0007
     18 C         141.4148  133.6995  155.2150 C.ar    1  UNL1       -0.0002
     19 C         142.1278  132.6257  155.9822 C.ar    1  UNL1       -0.0000
     20 C         143.1446  132.9955  157.0211 C.ar    1  UNL1       -0.0002
     21 C         143.4484  134.4390  157.2928 C.ar    1  UNL1       -0.0007
     22 O         138.7337  139.4369  166.9737 O.3     1  UNL1       -0.4740
     23 C         139.6167  140.1656  167.9429 C.3     1  UNL1        0.2227
     24 C         141.0908  139.8889  167.9688 C.3     1  UNL1        0.1203
     25 C         142.9256  141.3084  169.1384 C.3     1  UNL1        0.0900
     26 N         142.0679  141.0266  167.9405 N.3     1  UNL1       -0.2646
     27 C         142.1875  141.8824  166.7144 C.3     1  UNL1        0.0993
     28 C         143.2925  141.6337  165.7310 C.ar    1  UNL1       -0.0061
     29 C         143.5987  140.2347  165.2849 C.ar    1  UNL1       -0.0029
     30 C         144.7038  139.9861  164.3015 C.ar    1  UNL1       -0.0003
     31 C         145.5025  141.1364  163.7642 C.ar    1  UNL1       -0.0000
     32 C         145.1963  142.5354  164.2103 C.ar    1  UNL1       -0.0003
     33 C         144.0913  142.7841  165.1937 C.ar    1  UNL1       -0.0029
@<TRIPOS>BOND
     1    25    26    1
     2    26    24    1
     3    24    23    1
     4    23    22    1
     5    22     1    1
     6     1     2   ar
     7     2     3   ar
     8     3     4   ar
     9     4     7    1
    10     7     8   ar
    11     8     9   ar
    12     9    10   ar
    13    10    14    1
    14    14    15    1
    15    15    16    1
    16    16    17   ar
    17    17    18   ar
    18    18    19   ar
    19    19    20   ar
    20    20    21   ar
    21    10    11   ar
    22    11    12   ar
    23    12    13    2
    24     4     5   ar
    25     5     6   ar
    26    26    27    1
    27    27    28    1
    28    28    29   ar
    29    29    30   ar
    30    30    31   ar
    31    31    32   ar
    32    32    33   ar
    33     6     1   ar
    34    33    28   ar
    35    12     7   ar
    36    21    16   ar
@<TRIPOS>MOLECULE
*****
 33 36 0 0 0
SMALL
GASTEIGER

@<TRIPOS>ATOM
      1 C         138.8980  139.3691  166.7706 C.ar    1  UNL1        0.1387
      2 C         138.8359  138.0384  166.0811 C.ar    1  UNL1        0.0384
      3 C         139.2229  137.9235  164.6365 C.ar    1  UNL1        0.0207
      4 C         139.6719  139.1392  163.8813 C.ar    1  UNL1        0.0671
      5 C         139.7340  140.4699  164.5707 C.ar    1  UNL1        0.0207
      6 C         139.3470  140.5848  166.0154 C.ar    1  UNL1        0.0384
      7 N         140.0588  139.0242  162.4366 N.ar    1  UNL1       -0.2729
      8 C         141.4839  139.2417  162.0222 C.ar    1  UNL1        0.0860
      9 C         141.8709  139.1267  160.5775 C.ar    1  UNL1        0.0561
     10 C         140.8326  138.7942  159.5472 C.ar    1  UNL1        0.1453
     11 C         139.4075  138.5768  159.9616 C.ar    1  UNL1        0.0980
     12 C         139.0206  138.6918  161.4063 C.ar    1  UNL1        0.2679
     13 O         137.5954  138.4743  161.8207 O.2     1  UNL1       -0.2665
     14 O         141.2195  138.6792  158.1026 O.3     1  UNL1       -0.4704
     15 C         140.5594  137.6543  157.2287 C.3     1  UNL1        0.2320
     16 C         141.3958  136.7002  156.4285 C.ar    1  UNL1        0.0212
     17 C         142.8229  136.4478  156.8152 C.ar    1  UNL1       -0.0007
     18 C         143.6593  135.4937  156.0150 C.ar    1  UNL1       -0.0002
     19 C         143.0685  134.7922  154.8281 C.ar    1  UNL1       -0.0000
     20 C         141.6414  135.0447  154.4414 C.ar    1  UNL1       -0.0002
     21 C         140.8051  135.9987  155.2416 C.ar    1  UNL1       -0.0007
     22 O         138.5111  139.4841  168.2153 O.3     1  UNL1       -0.4740
     23 C         139.5337  139.8874  169.2358 C.3     1  UNL1        0.2227
     24 C         139.7012  141.3331  169.5990 C.3     1  UNL1        0.1203
     25 C         141.2261  143.4172  169.8837 C.3     1  UNL1        0.0900
     26 N         141.0671  141.9530  169.5991 N.3     1  UNL1       -0.2646
     27 C         142.2739  141.1088  169.3147 C.3     1  UNL1        0.0993
     28 C         142.6318  140.7647  167.8993 C.ar    1  UNL1       -0.0061
     29 C         142.8972  141.8569  166.9060 C.ar    1  UNL1       -0.0029
     30 C         143.2551  141.5127  165.4906 C.ar    1  UNL1       -0.0003
     31 C         143.3475  140.0763  165.0684 C.ar    1  UNL1       -0.0000
     32 C         143.0821  138.9841  166.0617 C.ar    1  UNL1       -0.0003
     33 C         142.7243  139.3282  167.4771 C.ar    1  UNL1       -0.0029
@<TRIPOS>BOND
     1    25    26    1
     2    26    24    1
     3    24    23    1
     4    23    22    1
     5    22     1    1
     6     1     2   ar
     7     2     3   ar
     8     3     4   ar
     9     4     7    1
    10     7     8   ar
    11     8     9   ar
    12     9    10   ar
    13    10    14    1
    14    14    15    1
    15    15    16    1
    16    16    17   ar
    17    17    18   ar
    18    18    19   ar
    19    19    20   ar
    20    20    21   ar
    21    10    11   ar
    22    11    12   ar
    23    12    13    2
    24     4     5   ar
    25     5     6   ar
    26    26    27    1
    27    27    28    1
    28    28    29   ar
    29    29    30   ar
    30    30    31   ar
    31    31    32   ar
    32    32    33   ar
    33     6     1   ar
    34    33    28   ar
    35    12     7   ar
    36    21    16   ar
@<TRIPOS>MOLECULE
*****
 33 36 0 0 0
SMALL
GASTEIGER

@<TRIPOS>ATOM
      1 C         142.2383  138.6102  165.2469 C.ar    1  UNL1        0.1387
      2 C         142.4288  139.8939  164.4948 C.ar    1  UNL1        0.0384
      3 C         141.7508  140.0958  163.1721 C.ar    1  UNL1        0.0207
      4 C         140.8824  139.0140  162.6016 C.ar    1  UNL1        0.0671
      5 C         140.6919  137.7303  163.3537 C.ar    1  UNL1        0.0207
      6 C         141.3699  137.5284  164.6764 C.ar    1  UNL1        0.0384
      7 N         140.2044  139.2159  161.2788 N.ar    1  UNL1       -0.2729
      8 C         138.8391  139.8345  161.2225 C.ar    1  UNL1        0.0860
      9 C         138.1611  140.0365  159.8998 C.ar    1  UNL1        0.0561
     10 C         138.8485  139.6198  158.6333 C.ar    1  UNL1        0.1453
     11 C         140.2139  139.0012  158.6897 C.ar    1  UNL1        0.0980
     12 C         140.8918  138.7992  160.0124 C.ar    1  UNL1        0.2679
     13 O         142.2572  138.1806  160.0687 O.2     1  UNL1       -0.2665
     14 O         138.1706  139.8217  157.3106 O.3     1  UNL1       -0.4704
     15 C         137.4896  141.1234  157.0079 C.3     1  UNL1        0.2320
     16 C         136.3328  141.1606  156.0536 C.ar    1  UNL1        0.0212
     17 C         135.0448  140.4793  156.4096 C.ar    1  UNL1       -0.0007
     18 C         133.8881  140.5165  155.4553 C.ar    1  UNL1       -0.0002
     19 C         134.0194  141.2350  154.1452 C.ar    1  UNL1       -0.0000
     20 C         135.3074  141.9163  153.7893 C.ar    1  UNL1       -0.0002
     21 C         136.4641  141.8791  154.7435 C.ar    1  UNL1       -0.0007
     22 O         142.9163  138.4083  166.5697 O.3     1  UNL1       -0.4740
     23 C         142.9971  139.5394  167.5515 C.3     1  UNL1        0.2227
     24 C         142.3372  139.4167  168.8930 C.3     1  UNL1        0.1203
     25 C         140.4235  140.0713  170.5235 C.3     1  UNL1        0.0900
     26 N         141.1446  140.2646  169.2226 N.3     1  UNL1       -0.2646
     27 C         140.6731  141.3058  168.2512 C.3     1  UNL1        0.0993
     28 C         139.8118  140.9113  167.0883 C.ar    1  UNL1       -0.0061
     29 C         139.6262  141.8558  165.9378 C.ar    1  UNL1       -0.0029
     30 C         138.7648  141.4612  164.7749 C.ar    1  UNL1       -0.0003
     31 C         138.0890  140.1221  164.7625 C.ar    1  UNL1       -0.0000
     32 C         138.2745  139.1776  165.9129 C.ar    1  UNL1       -0.0003
     33 C         139.1359  139.5722  167.0758 C.ar    1  UNL1       -0.0029
@<TRIPOS>BOND
     1    25    26    1
     2    26    24    1
     3    24    23    1
     4    23    22    1
     5    22     1    1
     6     1     2   ar
     7     2     3   ar
     8     3     4   ar
     9     4     7    1
    10     7     8   ar
    11     8     9   ar
    12     9    10   ar
    13    10    14    1
    14    14    15    1
    15    15    16    1
    16    16    17   ar
    17    17    18   ar
    18    18    19   ar
    19    19    20   ar
    20    20    21   ar
    21    10    11   ar
    22    11    12   ar
    23    12    13    2
    24     4     5   ar
    25     5     6   ar
    26    26    27    1
    27    27    28    1
    28    28    29   ar
    29    29    30   ar
    30    30    31   ar
    31    31    32   ar
    32    32    33   ar
    33     6     1   ar
    34    33    28   ar
    35    12     7   ar
    36    21    16   ar
@<TRIPOS>MOLECULE
*****
 33 36 0 0 0
SMALL
GASTEIGER

@<TRIPOS>ATOM
      1 C         142.6918  139.8335  165.3385 C.ar    1  UNL1        0.1387
      2 C         142.1897  138.4665  164.9791 C.ar    1  UNL1        0.0384
      3 C         141.9037  138.1252  163.5468 C.ar    1  UNL1        0.0207
      4 C         142.1198  139.1509  162.4738 C.ar    1  UNL1        0.0671
      5 C         142.6219  140.5178  162.8332 C.ar    1  UNL1        0.0207
      6 C         142.9079  140.8592  164.2655 C.ar    1  UNL1        0.0384
      7 N         141.8338  138.8095  161.0414 N.ar    1  UNL1       -0.2729
      8 C         140.4250  138.8491  160.5278 C.ar    1  UNL1        0.0860
      9 C         140.1390  138.5077  159.0954 C.ar    1  UNL1        0.0561
     10 C         141.2618  138.1267  158.1766 C.ar    1  UNL1        0.1453
     11 C         142.6706  138.0871  158.6903 C.ar    1  UNL1        0.0980
     12 C         142.9566  138.4285  160.1226 C.ar    1  UNL1        0.2679
     13 O         144.3654  138.3889  160.6362 O.2     1  UNL1       -0.2665
     14 O         140.9758  137.7854  156.7443 O.3     1  UNL1       -0.4704
     15 C         142.0099  137.0756  155.9216 C.3     1  UNL1        0.2320
     16 C         142.1387  135.5833  156.0034 C.ar    1  UNL1        0.0212
     17 C         141.2225  134.7065  155.2025 C.ar    1  UNL1       -0.0007
     18 C         141.3513  133.2143  155.2843 C.ar    1  UNL1       -0.0002
     19 C         142.3963  132.5990  156.1671 C.ar    1  UNL1       -0.0000
     20 C         143.3125  133.4759  156.9680 C.ar    1  UNL1       -0.0002
     21 C         143.1837  134.9680  156.8862 C.ar    1  UNL1       -0.0007
     22 O         142.9778  140.1749  166.7709 O.3     1  UNL1       -0.4740
     23 C         142.7901  139.1401  167.8404 C.3     1  UNL1        0.2227
     24 C         142.1030  139.5036  169.1234 C.3     1  UNL1        0.1203
     25 C         141.8313  142.0260  169.6828 C.3     1  UNL1        0.0900
     26 N         141.2476  140.7337  169.1937 N.3     1  UNL1       -0.2646
     27 C         139.8086  140.6716  168.7749 C.3     1  UNL1        0.0993
     28 C         139.4556  140.4939  167.3280 C.ar    1  UNL1       -0.0061
     29 C         139.7219  141.5994  166.3497 C.ar    1  UNL1       -0.0029
     30 C         139.3688  141.4216  164.9027 C.ar    1  UNL1       -0.0003
     31 C         138.7496  140.1384  164.4340 C.ar    1  UNL1       -0.0000
     32 C         138.4833  139.0329  165.4122 C.ar    1  UNL1       -0.0003
     33 C         138.8363  139.2106  166.8592 C.ar    1  UNL1       -0.0029
@<TRIPOS>BOND
     1    25    26    1
     2    26    24    1
     3    24    23    1
     4    23    22    1
     5    22     1    1
     6     1     2   ar
     7     2     3   ar
     8     3     4   ar
     9     4     7    1
    10     7     8   ar
    11     8     9   ar
    12     9    10   ar
    13    10    14    1
    14    14    15    1
    15    15    16    1
    16    16    17   ar
    17    17    18   ar
    18    18    19   ar
    19    19    20   ar
    20    20    21   ar
    21    10    11   ar
    22    11    12   ar
    23    12    13    2
    24     4     5   ar
    25     5     6   ar
    26    26    27    1
    27    27    28    1
    28    28    29   ar
    29    29    30   ar
    30    30    31   ar
    31    31    32   ar
    32    32    33   ar
    33     6     1   ar
    34    33    28   ar
    35    12     7   ar
    36    21    16   ar
@<TRIPOS>MOLECULE
*****
 33 36 0 0 0
SMALL
GASTEIGER

@<TRIPOS>ATOM
      1 C         138.7507  139.2769  164.7067 C.ar    1  UNL1        0.1387
      2 C         139.0670  137.8739  164.2805 C.ar    1  UNL1        0.0384
      3 C         139.6510  137.6161  162.9232 C.ar    1  UNL1        0.0207
      4 C         139.9188  138.7612  161.9920 C.ar    1  UNL1        0.0671
      5 C         139.6025  140.1641  162.4182 C.ar    1  UNL1        0.0207
      6 C         139.0185  140.4220  163.7755 C.ar    1  UNL1        0.0384
      7 N         140.5029  138.5033  160.6346 N.ar    1  UNL1       -0.2729
      8 C         139.6294  138.5710  159.4171 C.ar    1  UNL1        0.0860
      9 C         140.2135  138.3131  158.0597 C.ar    1  UNL1        0.0561
     10 C         141.6710  137.9874  157.9199 C.ar    1  UNL1        0.1453
     11 C         142.5445  137.9197  159.1376 C.ar    1  UNL1        0.0980
     12 C         141.9604  138.1776  160.4949 C.ar    1  UNL1        0.2679
     13 O         142.8339  138.1099  161.7125 O.2     1  UNL1       -0.2665
     14 O         142.2551  137.7295  156.5627 O.3     1  UNL1       -0.4704
     15 C         143.3154  136.6828  156.3890 C.3     1  UNL1        0.2320
     16 C         142.9306  135.2377  156.2715 C.ar    1  UNL1        0.0212
     17 C         141.8567  134.8234  155.3098 C.ar    1  UNL1       -0.0007
     18 C         141.4720  133.3784  155.1922 C.ar    1  UNL1       -0.0002
     19 C         142.1612  132.3477  156.0364 C.ar    1  UNL1       -0.0000
     20 C         143.2351  132.7620  156.9982 C.ar    1  UNL1       -0.0002
     21 C         143.6198  134.2071  157.1157 C.ar    1  UNL1       -0.0007
     22 O         138.1667  139.5348  166.0641 O.3     1  UNL1       -0.4740
     23 C         139.0707  139.7222  167.2462 C.3     1  UNL1        0.2227
     24 C         140.5506  139.8604  167.0443 C.3     1  UNL1        0.1203
     25 C         142.6884  141.2534  167.5334 C.3     1  UNL1        0.0900
     26 N         141.2158  141.1881  167.2561 N.3     1  UNL1       -0.2646
     27 C         140.4082  142.4504  167.1906 C.3     1  UNL1        0.0993
     28 C         140.3157  143.2157  165.9039 C.ar    1  UNL1       -0.0061
     29 C         141.4236  143.1261  164.8966 C.ar    1  UNL1       -0.0029
     30 C         141.3311  143.8914  163.6098 C.ar    1  UNL1       -0.0003
     31 C         140.1307  144.7463  163.3303 C.ar    1  UNL1       -0.0000
     32 C         139.0228  144.8360  164.3376 C.ar    1  UNL1       -0.0003
     33 C         139.1153  144.0707  165.6243 C.ar    1  UNL1       -0.0029
@<TRIPOS>BOND
     1    25    26    1
     2    26    24    1
     3    24    23    1
     4    23    22    1
     5    22     1    1
     6     1     2   ar
     7     2     3   ar
     8     3     4   ar
     9     4     7    1
    10     7     8   ar
    11     8     9   ar
    12     9    10   ar
    13    10    14    1
    14    14    15    1
    15    15    16    1
    16    16    17   ar
    17    17    18   ar
    18    18    19   ar
    19    19    20   ar
    20    20    21   ar
    21    10    11   ar
    22    11    12   ar
    23    12    13    2
    24     4     5   ar
    25     5     6   ar
    26    26    27    1
    27    27    28    1
    28    28    29   ar
    29    29    30   ar
    30    30    31   ar
    31    31    32   ar
    32    32    33   ar
    33     6     1   ar
    34    33    28   ar
    35    12     7   ar
    36    21    16   ar
@<TRIPOS>MOLECULE
*****
 33 36 0 0 0
SMALL
GASTEIGER

@<TRIPOS>ATOM
      1 C         141.5110  142.5484  164.5827 C.ar    1  UNL1        0.1387
      2 C         142.3834  143.7156  164.2271 C.ar    1  UNL1        0.0384
      3 C         142.3692  144.2647  162.8314 C.ar    1  UNL1        0.0207
      4 C         141.4827  143.6466  161.7912 C.ar    1  UNL1        0.0671
      5 C         140.6102  142.4795  162.1468 C.ar    1  UNL1        0.0207
      6 C         140.6244  141.9303  163.5425 C.ar    1  UNL1        0.0384
      7 N         141.4686  144.1958  160.3954 N.ar    1  UNL1       -0.2729
      8 C         142.4529  143.6928  159.3815 C.ar    1  UNL1        0.0860
      9 C         142.4388  144.2420  157.9857 C.ar    1  UNL1        0.0561
     10 C         141.4403  145.2942  157.6038 C.ar    1  UNL1        0.1453
     11 C         140.4559  145.7973  158.6178 C.ar    1  UNL1        0.0980
     12 C         140.4701  145.2481  160.0135 C.ar    1  UNL1        0.2679
     13 O         139.4857  145.7511  161.0275 O.2     1  UNL1       -0.2665
     14 O         141.4261  145.8434  156.2081 O.3     1  UNL1       -0.4704
     15 C         140.1213  146.1667  155.5425 C.3     1  UNL1        0.2320
     16 C         139.7076  147.5967  155.3578 C.ar    1  UNL1        0.0212
     17 C         140.1542  148.3557  154.1435 C.ar    1  UNL1       -0.0007
     18 C         139.7405  149.7857  153.9588 C.ar    1  UNL1       -0.0002
     19 C         138.8802  150.4565  154.9884 C.ar    1  UNL1       -0.0000
     20 C         138.4337  149.6975  156.2026 C.ar    1  UNL1       -0.0002
     21 C         138.8474  148.2676  156.3873 C.ar    1  UNL1       -0.0007
     22 O         141.5251  141.9992  165.9785 O.3     1  UNL1       -0.4740
     23 C         140.5367  140.9446  166.3796 C.3     1  UNL1        0.2227
     24 C         140.9841  139.5228  166.5487 C.3     1  UNL1        0.1203
     25 C         140.0167  138.1052  164.5983 C.3     1  UNL1        0.0900
     26 N         141.1965  138.6550  165.3438 N.3     1  UNL1       -0.2646
     27 C         142.5885  138.3372  164.8844 C.3     1  UNL1        0.0993
     28 C         143.3683  139.3490  164.0982 C.ar    1  UNL1       -0.0061
     29 C         143.1218  139.5077  162.6271 C.ar    1  UNL1       -0.0029
     30 C         143.9016  140.5196  161.8409 C.ar    1  UNL1       -0.0003
     31 C         144.9278  141.3727  162.5257 C.ar    1  UNL1       -0.0000
     32 C         145.1742  141.2140  163.9968 C.ar    1  UNL1       -0.0003
     33 C         144.3945  140.2022  164.7830 C.ar    1  UNL1       -0.0029
@<TRIPOS>BOND
     1    25    26    1
     2    26    24    1
     3    24    23    1
     4    23    22    1
     5    22     1    1
     6     1     2   ar
     7     2     3   ar
     8     3     4   ar
     9     4     7    1
    10     7     8   ar
    11     8     9   ar
    12     9    10   ar
    13    10    14    1
    14    14    15    1
    15    15    16    1
    16    16    17   ar
    17    17    18   ar
    18    18    19   ar
    19    19    20   ar
    20    20    21   ar
    21    10    11   ar
    22    11    12   ar
    23    12    13    2
    24     4     5   ar
    25     5     6   ar
    26    26    27    1
    27    27    28    1
    28    28    29   ar
    29    29    30   ar
    30    30    31   ar
    31    31    32   ar
    32    32    33   ar
    33     6     1   ar
    34    33    28   ar
    35    12     7   ar
    36    21    16   ar
@<TRIPOS>MOLECULE
*****
 33 36 0 0 0
SMALL
GASTEIGER

@<TRIPOS>ATOM
      1 C         138.0779  142.0233  161.6778 C.ar    1  UNL1        0.1387
      2 C         139.2908  142.5315  160.9563 C.ar    1  UNL1        0.0384
      3 C         140.1387  141.5869  160.1572 C.ar    1  UNL1        0.0207
      4 C         139.7737  140.1340  160.0795 C.ar    1  UNL1        0.0671
      5 C         138.5608  139.6258  160.8010 C.ar    1  UNL1        0.0207
      6 C         137.7129  140.5704  161.6001 C.ar    1  UNL1        0.0384
      7 N         140.6217  139.1894  159.2803 N.ar    1  UNL1       -0.2729
      8 C         141.9425  138.7271  159.8204 C.ar    1  UNL1        0.0860
      9 C         142.7905  137.7825  159.0212 C.ar    1  UNL1        0.0561
     10 C         142.3176  137.3001  157.6819 C.ar    1  UNL1        0.1453
     11 C         140.9967  137.7624  157.1418 C.ar    1  UNL1        0.0980
     12 C         140.1488  138.7070  157.9410 C.ar    1  UNL1        0.2679
     13 O         138.8279  139.1693  157.4009 O.2     1  UNL1       -0.2665
     14 O         143.1655  136.3555  156.8827 O.3     1  UNL1       -0.4704
     15 C         142.5834  135.0680  156.3793 C.3     1  UNL1        0.2320
     16 C         143.3838  133.8018  156.4575 C.ar    1  UNL1        0.0212
     17 C         143.3373  132.8143  155.3294 C.ar    1  UNL1       -0.0007
     18 C         144.1377  131.5481  155.4077 C.ar    1  UNL1       -0.0002
     19 C         144.9845  131.2694  156.6140 C.ar    1  UNL1       -0.0000
     20 C         145.0310  132.2569  157.7421 C.ar    1  UNL1       -0.0002
     21 C         144.2306  133.5231  157.6638 C.ar    1  UNL1       -0.0007
     22 O         137.2299  142.9679  162.4770 O.3     1  UNL1       -0.4740
     23 C         137.8685  143.8879  163.4749 C.3     1  UNL1        0.2227
     24 C         138.4342  143.3354  164.7496 C.3     1  UNL1        0.1203
     25 C         140.9277  143.6651  164.0986 C.3     1  UNL1        0.0900
     26 N         139.8615  142.8768  164.8000 N.3     1  UNL1       -0.2646
     27 C         140.2226  141.6301  165.5518 C.3     1  UNL1        0.0993
     28 C         140.1053  140.2916  164.8849 C.ar    1  UNL1       -0.0061
     29 C         141.1776  139.8252  163.9454 C.ar    1  UNL1       -0.0029
     30 C         141.0602  138.4867  163.2785 C.ar    1  UNL1       -0.0003
     31 C         139.8706  137.6147  163.5511 C.ar    1  UNL1       -0.0000
     32 C         138.7983  138.0811  164.4907 C.ar    1  UNL1       -0.0003
     33 C         138.9157  139.4195  165.1575 C.ar    1  UNL1       -0.0029
@<TRIPOS>BOND
     1    25    26    1
     2    26    24    1
     3    24    23    1
     4    23    22    1
     5    22     1    1
     6     1     2   ar
     7     2     3   ar
     8     3     4   ar
     9     4     7    1
    10     7     8   ar
    11     8     9   ar
    12     9    10   ar
    13    10    14    1
    14    14    15    1
    15    15    16    1
    16    16    17   ar
    17    17    18   ar
    18    18    19   ar
    19    19    20   ar
    20    20    21   ar
    21    10    11   ar
    22    11    12   ar
    23    12    13    2
    24     4     5   ar
    25     5     6   ar
    26    26    27    1
    27    27    28    1
    28    28    29   ar
    29    29    30   ar
    30    30    31   ar
    31    31    32   ar
    32    32    33   ar
    33     6     1   ar
    34    33    28   ar
    35    12     7   ar
    36    21    16   ar
