@<TRIPOS>MOLECULE
*****
 37 41 0 0 0
SMALL
GASTEIGER

@<TRIPOS>ATOM
      1 C         140.3916  138.8942  160.5491 C.ar    1  UNL1        0.1664
      2 N         140.3064  140.3652  160.8306 N.ar    1  UNL1       -0.2120
      3 C         139.8167  140.8464  162.1643 C.ar    1  UNL1        0.1318
      4 C         139.4122  139.8567  163.2164 C.ar    1  UNL1        0.0491
      5 C         138.9225  140.3379  164.5501 C.ar    1  UNL1        0.0041
      6 C         138.5181  139.3483  165.6022 C.ar    1  UNL1        0.0002
      7 C         138.6033  137.8774  165.3206 C.ar    1  UNL1        0.0015
      8 C         139.0930  137.3962  163.9870 C.ar    1  UNL1        0.0192
      9 C         139.4974  138.3858  162.9349 C.ar    1  UNL1        0.0856
     10 N         139.9871  137.9046  161.6012 N.ar    1  UNL1       -0.2264
     11 C         142.3518  138.2433  158.9731 C.ar    1  UNL1        0.1277
     12 C         142.8415  137.7621  157.6394 C.ar    1  UNL1        0.0407
     13 C         141.8606  137.4506  156.5481 C.ar    1  UNL1        0.1003
     14 N         140.3901  137.6203  156.7905 N.ar    1  UNL1       -0.2421
     15 C         139.9004  138.1015  158.1242 C.ar    1  UNL1        0.1032
     16 C         140.8812  138.4130  159.2154 C.ar    1  UNL1        0.0735
     17 N         144.3135  138.8664  161.1556 N.3     1  UNL1       -0.2035
     18 S         143.3326  138.5548  160.0643 S.O2    1  UNL1        0.0573
     19 O         143.4887  139.9465  159.5269 O.2     1  UNL1       -0.1532
     20 O         143.1766  137.1632  160.6018 O.2     1  UNL1       -0.1532
     21 H         144.4358  138.0448  161.7476 H       1  UNL1        0.1442
     22 H         143.9617  139.6412  161.7180 H       1  UNL1        0.1442
     23 C         138.8373  141.8088  164.8316 C.ar    1  UNL1        0.0001
     24 C         137.6642  142.6007  164.3351 C.ar    1  UNL1        0.0000
     25 C         137.5790  144.0717  164.6166 C.ar    1  UNL1        0.0000
     26 C         138.6670  144.7506  165.3946 C.ar    1  UNL1        0.0000
     27 C         139.8402  143.9586  165.8911 C.ar    1  UNL1        0.0000
     28 C         139.9254  142.4878  165.6096 C.ar    1  UNL1        0.0000
     29 N         139.7315  142.3172  162.4458 N.pl3   1  UNL1       -0.3131
     30 H         138.9500  142.6833  162.9197 H       1  UNL1        0.1485
     31 C         140.8370  143.2305  162.0054 C.3     1  UNL1        0.1348
     32 C         141.9989  143.4952  162.9163 C.ar    1  UNL1        0.0788
     33 C         142.3771  144.9056  163.2589 C.ar    1  UNL1        0.0165
     34 C         143.5391  145.1704  164.1699 C.ar    1  UNL1        0.0029
     35 C         144.3228  144.0246  164.7382 C.ar    1  UNL1        0.0207
     36 C         143.9445  142.6140  164.3955 C.ar    1  UNL1        0.0985
     37 N         142.7826  142.3494  163.4846 N.ar    1  UNL1       -0.2464
@<TRIPOS>BOND
     1    17    18    1
     2    18    19    2
     3    18    20    2
     4    18    11    1
     5    11    12   ar
     6    12    13   ar
     7    13    14   ar
     8    14    15   ar
     9    15    16   ar
    10    16     1    1
    11     1     2   ar
    12     2     3   ar
    13     3    29    1
    14    29    31    1
    15    31    32    1
    16    32    33   ar
    17    33    34   ar
    18    34    35   ar
    19    35    36   ar
    20    36    37   ar
    21     3     4   ar
    22     4     5   ar
    23     5    23    1
    24    23    24   ar
    25    24    25   ar
    26    25    26   ar
    27    26    27   ar
    28    27    28   ar
    29     5     6   ar
    30     6     7   ar
    31     7     8   ar
    32     8     9   ar
    33     9    10   ar
    34    16    11   ar
    35    10     1   ar
    36    37    32   ar
    37     9     4   ar
    38    28    23   ar
    39    17    21    1
    40    17    22    1
    41    29    30    1
@<TRIPOS>MOLECULE
*****
 37 41 0 0 0
SMALL
GASTEIGER

@<TRIPOS>ATOM
      1 C         140.0718  141.1551  163.2059 C.ar    1  UNL1        0.1664
      2 N         141.0259  141.9058  164.0870 N.ar    1  UNL1       -0.2120
      3 C         140.9787  141.7187  165.5745 C.ar    1  UNL1        0.1318
      4 C         139.9774  140.7808  166.1810 C.ar    1  UNL1        0.0491
      5 C         139.9301  140.5937  167.6685 C.ar    1  UNL1        0.0041
      6 C         138.9289  139.6559  168.2751 C.ar    1  UNL1        0.0002
      7 C         137.9748  138.9052  167.3941 C.ar    1  UNL1        0.0015
      8 C         138.0220  139.0923  165.9065 C.ar    1  UNL1        0.0192
      9 C         139.0233  140.0301  165.3000 C.ar    1  UNL1        0.0856
     10 N         139.0705  140.2173  163.8125 N.ar    1  UNL1       -0.2264
     11 C         139.3147  142.4319  161.0737 C.ar    1  UNL1        0.1277
     12 C         139.3619  142.6190  159.5861 C.ar    1  UNL1        0.0407
     13 C         140.2135  141.7164  158.7433 C.ar    1  UNL1        0.1003
     14 N         141.0178  140.6268  159.3881 N.ar    1  UNL1       -0.2421
     15 C         140.9705  140.4397  160.8756 C.ar    1  UNL1        0.1032
     16 C         140.1190  141.3422  161.7184 C.ar    1  UNL1        0.0735
     17 N         137.6117  144.2370  162.7593 N.3     1  UNL1       -0.2035
     18 S         138.4632  143.3344  161.9164 S.O2    1  UNL1        0.0573
     19 O         139.5669  144.3497  161.9444 O.2     1  UNL1       -0.1532
     20 O         137.3594  142.3191  161.8885 O.2     1  UNL1       -0.1532
     21 H         136.7110  143.7907  162.9324 H       1  UNL1        0.1442
     22 H         137.4651  145.1202  162.2705 H       1  UNL1        0.1442
     23 C         140.8843  141.3445  168.5496 C.ar    1  UNL1        0.0001
     24 C         142.1965  140.7266  168.9319 C.ar    1  UNL1        0.0000
     25 C         143.1506  141.4773  169.8130 C.ar    1  UNL1        0.0000
     26 C         142.7924  142.8460  170.3115 C.ar    1  UNL1        0.0000
     27 C         141.4801  143.4638  169.9291 C.ar    1  UNL1        0.0000
     28 C         140.5261  142.7131  169.0481 C.ar    1  UNL1        0.0000
     29 N         141.9328  142.4694  166.4555 N.pl3   1  UNL1       -0.3131
     30 H         141.5948  142.9699  167.2330 H       1  UNL1        0.1485
     31 C         143.4017  142.4574  166.1519 C.3     1  UNL1        0.1348
     32 C         143.8817  142.7326  164.7577 C.ar    1  UNL1        0.0788
     33 C         143.6846  144.0902  164.1510 C.ar    1  UNL1        0.0165
     34 C         144.1646  144.3654  162.7567 C.ar    1  UNL1        0.0029
     35 C         144.8417  143.2831  161.9693 C.ar    1  UNL1        0.0207
     36 C         145.0388  141.9255  162.5761 C.ar    1  UNL1        0.0985
     37 N         144.5588  141.6503  163.9703 N.ar    1  UNL1       -0.2464
@<TRIPOS>BOND
     1    17    18    1
     2    18    19    2
     3    18    20    2
     4    18    11    1
     5    11    12   ar
     6    12    13   ar
     7    13    14   ar
     8    14    15   ar
     9    15    16   ar
    10    16     1    1
    11     1     2   ar
    12     2     3   ar
    13     3    29    1
    14    29    31    1
    15    31    32    1
    16    32    33   ar
    17    33    34   ar
    18    34    35   ar
    19    35    36   ar
    20    36    37   ar
    21     3     4   ar
    22     4     5   ar
    23     5    23    1
    24    23    24   ar
    25    24    25   ar
    26    25    26   ar
    27    26    27   ar
    28    27    28   ar
    29     5     6   ar
    30     6     7   ar
    31     7     8   ar
    32     8     9   ar
    33     9    10   ar
    34    16    11   ar
    35    10     1   ar
    36    37    32   ar
    37     9     4   ar
    38    28    23   ar
    39    17    21    1
    40    17    22    1
    41    29    30    1
@<TRIPOS>MOLECULE
*****
 37 41 0 0 0
SMALL
GASTEIGER

@<TRIPOS>ATOM
      1 C         143.1615  140.6469  161.0026 C.ar    1  UNL1        0.1664
      2 N         141.7325  140.5006  161.4346 N.ar    1  UNL1       -0.2120
      3 C         141.4121  139.9510  162.7930 C.ar    1  UNL1        0.1318
      4 C         142.5208  139.5476  163.7194 C.ar    1  UNL1        0.0491
      5 C         142.2004  138.9980  165.0778 C.ar    1  UNL1        0.0041
      6 C         143.3090  138.5946  166.0042 C.ar    1  UNL1        0.0002
      7 C         144.7380  138.7409  165.5722 C.ar    1  UNL1        0.0015
      8 C         145.0583  139.2905  164.2138 C.ar    1  UNL1        0.0192
      9 C         143.9497  139.6939  163.2874 C.ar    1  UNL1        0.0856
     10 N         144.2701  140.2435  161.9290 N.ar    1  UNL1       -0.2264
     11 C         143.3534  142.6677  159.3810 C.ar    1  UNL1        0.1277
     12 C         143.6738  143.2173  158.0226 C.ar    1  UNL1        0.0407
     13 C         144.1226  142.2958  156.9274 C.ar    1  UNL1        0.1003
     14 N         144.2511  140.8247  157.1906 N.ar    1  UNL1       -0.2421
     15 C         143.9307  140.2751  158.5490 C.ar    1  UNL1        0.1032
     16 C         143.4819  141.1965  159.6442 C.ar    1  UNL1        0.0735
     17 N         142.4557  144.5107  161.5713 N.3     1  UNL1       -0.2035
     18 S         142.9046  143.5892  160.4761 S.O2    1  UNL1        0.0573
     19 O         141.5209  143.6032  159.8972 O.2     1  UNL1       -0.1532
     20 O         144.2883  143.5751  161.0550 O.2     1  UNL1       -0.1532
     21 H         143.2411  144.7105  162.1907 H       1  UNL1        0.1442
     22 H         141.7073  144.0669  162.1036 H       1  UNL1        0.1442
     23 C         140.7714  138.8517  165.5098 C.ar    1  UNL1        0.0001
     24 C         140.1254  139.9216  166.3392 C.ar    1  UNL1        0.0000
     25 C         138.6963  139.7753  166.7712 C.ar    1  UNL1        0.0000
     26 C         137.9134  138.5592  166.3737 C.ar    1  UNL1        0.0000
     27 C         138.5595  137.4893  165.5442 C.ar    1  UNL1        0.0000
     28 C         139.9884  137.6356  165.1122 C.ar    1  UNL1        0.0000
     29 N         139.9832  139.8047  163.2250 N.pl3   1  UNL1       -0.3131
     30 H         139.7067  139.0223  163.7546 H       1  UNL1        0.1485
     31 C         138.9754  140.8507  162.8500 C.3     1  UNL1        0.1348
     32 C         138.9746  142.1768  163.5509 C.ar    1  UNL1        0.0788
     33 C         137.7422  142.6467  164.2653 C.ar    1  UNL1        0.0165
     34 C         137.7413  143.9729  164.9663 C.ar    1  UNL1        0.0029
     35 C         138.9729  144.8291  164.9529 C.ar    1  UNL1        0.0207
     36 C         140.2054  144.3591  164.2385 C.ar    1  UNL1        0.0985
     37 N         140.2062  143.0330  163.5376 N.ar    1  UNL1       -0.2464
@<TRIPOS>BOND
     1    17    18    1
     2    18    19    2
     3    18    20    2
     4    18    11    1
     5    11    12   ar
     6    12    13   ar
     7    13    14   ar
     8    14    15   ar
     9    15    16   ar
    10    16     1    1
    11     1     2   ar
    12     2     3   ar
    13     3    29    1
    14    29    31    1
    15    31    32    1
    16    32    33   ar
    17    33    34   ar
    18    34    35   ar
    19    35    36   ar
    20    36    37   ar
    21     3     4   ar
    22     4     5   ar
    23     5    23    1
    24    23    24   ar
    25    24    25   ar
    26    25    26   ar
    27    26    27   ar
    28    27    28   ar
    29     5     6   ar
    30     6     7   ar
    31     7     8   ar
    32     8     9   ar
    33     9    10   ar
    34    16    11   ar
    35    10     1   ar
    36    37    32   ar
    37     9     4   ar
    38    28    23   ar
    39    17    21    1
    40    17    22    1
    41    29    30    1
@<TRIPOS>MOLECULE
*****
 37 41 0 0 0
SMALL
GASTEIGER

@<TRIPOS>ATOM
      1 C         139.9864  140.6614  163.3222 C.ar    1  UNL1        0.1664
      2 N         140.9579  141.4639  164.1361 N.ar    1  UNL1       -0.2120
      3 C         140.9063  141.4087  165.6342 C.ar    1  UNL1        0.1318
      4 C         139.8832  140.5512  166.3184 C.ar    1  UNL1        0.0491
      5 C         139.8316  140.4961  167.8165 C.ar    1  UNL1        0.0041
      6 C         138.8086  139.6386  168.5006 C.ar    1  UNL1        0.0002
      7 C         137.8371  138.8363  167.6867 C.ar    1  UNL1        0.0015
      8 C         137.8887  138.8914  166.1886 C.ar    1  UNL1        0.0192
      9 C         138.9118  139.7489  165.5044 C.ar    1  UNL1        0.0856
     10 N         138.9634  139.8040  164.0063 N.ar    1  UNL1       -0.2264
     11 C         140.5827  139.5534  161.0491 C.ar    1  UNL1        0.1277
     12 C         140.6343  139.6085  159.5510 C.ar    1  UNL1        0.0407
     13 C         140.1412  140.8268  158.8279 C.ar    1  UNL1        0.1003
     14 N         139.5966  141.9899  159.6029 N.ar    1  UNL1       -0.2421
     15 C         139.5450  141.9347  161.1010 C.ar    1  UNL1        0.1032
     16 C         140.0380  140.7166  161.8241 C.ar    1  UNL1        0.0735
     17 N         141.5687  137.1170  162.4954 N.3     1  UNL1       -0.2035
     18 S         141.0757  138.3353  161.7722 S.O2    1  UNL1        0.0573
     19 O         139.7488  137.6700  161.5563 O.2     1  UNL1       -0.1532
     20 O         142.4026  139.0005  161.9882 O.2     1  UNL1       -0.1532
     21 H         142.5312  137.2673  162.7977 H       1  UNL1        0.1442
     22 H         141.5305  136.3119  161.8703 H       1  UNL1        0.1442
     23 C         140.8031  141.2985  168.6304 C.ar    1  UNL1        0.0001
     24 C         140.4566  142.6971  169.0474 C.ar    1  UNL1        0.0000
     25 C         141.4281  143.4995  169.8614 C.ar    1  UNL1        0.0000
     26 C         142.7460  142.9032  170.2583 C.ar    1  UNL1        0.0000
     27 C         143.0925  141.5046  169.8412 C.ar    1  UNL1        0.0000
     28 C         142.1210  140.7023  169.0273 C.ar    1  UNL1        0.0000
     29 N         141.8777  142.2111  166.4482 N.pl3   1  UNL1       -0.3131
     30 H         141.5575  142.7459  167.2102 H       1  UNL1        0.1485
     31 C         143.3370  142.1987  166.1010 C.3     1  UNL1        0.1348
     32 C         143.7867  142.6261  164.7354 C.ar    1  UNL1        0.0788
     33 C         143.5645  144.0380  164.2804 C.ar    1  UNL1        0.0165
     34 C         144.0143  144.4656  162.9147 C.ar    1  UNL1        0.0029
     35 C         144.6861  143.4810  162.0040 C.ar    1  UNL1        0.0207
     36 C         144.9082  142.0690  162.4590 C.ar    1  UNL1        0.0985
     37 N         144.4585  141.6416  163.8247 N.ar    1  UNL1       -0.2464
@<TRIPOS>BOND
     1    17    18    1
     2    18    19    2
     3    18    20    2
     4    18    11    1
     5    11    12   ar
     6    12    13   ar
     7    13    14   ar
     8    14    15   ar
     9    15    16   ar
    10    16     1    1
    11     1     2   ar
    12     2     3   ar
    13     3    29    1
    14    29    31    1
    15    31    32    1
    16    32    33   ar
    17    33    34   ar
    18    34    35   ar
    19    35    36   ar
    20    36    37   ar
    21     3     4   ar
    22     4     5   ar
    23     5    23    1
    24    23    24   ar
    25    24    25   ar
    26    25    26   ar
    27    26    27   ar
    28    27    28   ar
    29     5     6   ar
    30     6     7   ar
    31     7     8   ar
    32     8     9   ar
    33     9    10   ar
    34    16    11   ar
    35    10     1   ar
    36    37    32   ar
    37     9     4   ar
    38    28    23   ar
    39    17    21    1
    40    17    22    1
    41    29    30    1
@<TRIPOS>MOLECULE
*****
 37 41 0 0 0
SMALL
GASTEIGER

@<TRIPOS>ATOM
      1 C         140.8291  140.4890  162.8392 C.ar    1  UNL1        0.1664
      2 N         140.1418  141.3187  163.8829 N.ar    1  UNL1       -0.2120
      3 C         140.5183  141.1696  165.3272 C.ar    1  UNL1        0.1318
      4 C         141.5820  140.1907  165.7279 C.ar    1  UNL1        0.0491
      5 C         141.9584  140.0416  167.1722 C.ar    1  UNL1        0.0041
      6 C         143.0220  139.0628  167.5729 C.ar    1  UNL1        0.0002
      7 C         143.7092  138.2331  166.5292 C.ar    1  UNL1        0.0015
      8 C         143.3328  138.3822  165.0849 C.ar    1  UNL1        0.0192
      9 C         142.2692  139.3610  164.6842 C.ar    1  UNL1        0.0856
     10 N         141.8927  139.5101  163.2399 N.ar    1  UNL1       -0.2264
     11 C         139.4714  139.6887  160.7737 C.ar    1  UNL1        0.1277
     12 C         139.0949  139.8378  159.3294 C.ar    1  UNL1        0.0407
     13 C         139.6998  140.9363  158.5063 C.ar    1  UNL1        0.1003
     14 N         140.6811  141.8856  159.1274 N.ar    1  UNL1       -0.2421
     15 C         141.0575  141.7365  160.5718 C.ar    1  UNL1        0.1032
     16 C         140.4527  140.6381  161.3949 C.ar    1  UNL1        0.0735
     17 N         138.2616  137.4918  162.4201 N.3     1  UNL1       -0.2035
     18 S         138.8665  138.5903  161.5969 S.O2    1  UNL1        0.0573
     19 O         137.7325  139.4970  161.9735 O.2     1  UNL1       -0.1532
     20 O         140.0005  137.6836  161.2202 O.2     1  UNL1       -0.1532
     21 H         138.8515  136.6615  162.3652 H       1  UNL1        0.1442
     22 H         137.3316  137.2724  162.0633 H       1  UNL1        0.1442
     23 C         141.2711  140.8714  168.2159 C.ar    1  UNL1        0.0001
     24 C         139.9999  140.3832  168.8448 C.ar    1  UNL1        0.0000
     25 C         139.3126  141.2130  169.8885 C.ar    1  UNL1        0.0000
     26 C         139.8966  142.5309  170.3032 C.ar    1  UNL1        0.0000
     27 C         141.1680  143.0190  169.6743 C.ar    1  UNL1        0.0000
     28 C         141.8552  142.1893  168.6306 C.ar    1  UNL1        0.0000
     29 N         139.8311  141.9993  166.3709 N.pl3   1  UNL1       -0.3131
     30 H         139.4061  141.5638  167.1448 H       1  UNL1        0.1485
     31 C         139.7913  143.4927  166.2355 C.3     1  UNL1        0.1348
     32 C         139.6984  144.1203  164.8763 C.ar    1  UNL1        0.0788
     33 C         138.3734  144.2053  164.1785 C.ar    1  UNL1        0.0165
     34 C         138.2804  144.8329  162.8192 C.ar    1  UNL1        0.0029
     35 C         139.5126  145.3755  162.1578 C.ar    1  UNL1        0.0207
     36 C         140.8377  145.2904  162.8557 C.ar    1  UNL1        0.0985
     37 N         140.9306  144.6628  164.2149 N.ar    1  UNL1       -0.2464
@<TRIPOS>BOND
     1    17    18    1
     2    18    19    2
     3    18    20    2
     4    18    11    1
     5    11    12   ar
     6    12    13   ar
     7    13    14   ar
     8    14    15   ar
     9    15    16   ar
    10    16     1    1
    11     1     2   ar
    12     2     3   ar
    13     3    29    1
    14    29    31    1
    15    31    32    1
    16    32    33   ar
    17    33    34   ar
    18    34    35   ar
    19    35    36   ar
    20    36    37   ar
    21     3     4   ar
    22     4     5   ar
    23     5    23    1
    24    23    24   ar
    25    24    25   ar
    26    25    26   ar
    27    26    27   ar
    28    27    28   ar
    29     5     6   ar
    30     6     7   ar
    31     7     8   ar
    32     8     9   ar
    33     9    10   ar
    34    16    11   ar
    35    10     1   ar
    36    37    32   ar
    37     9     4   ar
    38    28    23   ar
    39    17    21    1
    40    17    22    1
    41    29    30    1
@<TRIPOS>MOLECULE
*****
 37 41 0 0 0
SMALL
GASTEIGER

@<TRIPOS>ATOM
      1 C         142.5284  141.1695  160.9824 C.ar    1  UNL1        0.1664
      2 N         141.1554  140.8600  161.5013 N.ar    1  UNL1       -0.2120
      3 C         140.9915  140.1523  162.8137 C.ar    1  UNL1        0.1318
      4 C         142.2007  139.7541  163.6071 C.ar    1  UNL1        0.0491
      5 C         142.0368  139.0464  164.9195 C.ar    1  UNL1        0.0041
      6 C         143.2458  138.6481  165.7130 C.ar    1  UNL1        0.0002
      7 C         144.6187  138.9576  165.1940 C.ar    1  UNL1        0.0015
      8 C         144.7826  139.6653  163.8817 C.ar    1  UNL1        0.0192
      9 C         143.5736  140.0635  163.0882 C.ar    1  UNL1        0.0856
     10 N         143.7374  140.7712  161.7758 N.ar    1  UNL1       -0.2264
     11 C         142.7814  141.0872  158.3979 C.ar    1  UNL1        0.1277
     12 C         142.9452  141.7949  157.0856 C.ar    1  UNL1        0.0407
     13 C         143.0200  143.2925  157.0453 C.ar    1  UNL1        0.1003
     14 N         142.9309  144.0824  158.3173 N.ar    1  UNL1       -0.2421
     15 C         142.7671  143.3747  159.6297 C.ar    1  UNL1        0.1032
     16 C         142.6923  141.8771  159.6700 C.ar    1  UNL1        0.0735
     17 N         142.6317  138.0920  158.4786 N.3     1  UNL1       -0.2035
     18 S         142.7066  139.5896  158.4383 S.O2    1  UNL1        0.0573
     19 O         141.2186  139.6592  158.2619 O.2     1  UNL1       -0.1532
     20 O         144.1945  139.5201  158.6147 O.2     1  UNL1       -0.1532
     21 H         143.5687  137.7079  158.6008 H       1  UNL1        0.1442
     22 H         142.2345  137.7477  157.6045 H       1  UNL1        0.1442
     23 C         140.6638  138.7369  165.4384 C.ar    1  UNL1        0.0001
     24 C         140.0225  139.6412  166.4488 C.ar    1  UNL1        0.0000
     25 C         138.6495  139.3318  166.9678 C.ar    1  UNL1        0.0000
     26 C         137.9179  138.1180  166.4762 C.ar    1  UNL1        0.0000
     27 C         138.5593  137.2138  165.4657 C.ar    1  UNL1        0.0000
     28 C         139.9322  137.5232  164.9469 C.ar    1  UNL1        0.0000
     29 N         139.6186  139.8429  163.3326 N.pl3   1  UNL1       -0.3131
     30 H         139.4431  138.9826  163.7780 H       1  UNL1        0.1485
     31 C         138.5132  140.8442  163.1730 C.3     1  UNL1        0.1348
     32 C         138.7257  142.2690  163.5909 C.ar    1  UNL1        0.0788
     33 C         139.0402  142.5920  165.0215 C.ar    1  UNL1        0.0165
     34 C         139.2527  144.0169  165.4395 C.ar    1  UNL1        0.0029
     35 C         139.1507  145.1187  164.4268 C.ar    1  UNL1        0.0207
     36 C         138.8362  144.7956  162.9961 C.ar    1  UNL1        0.0985
     37 N         138.6237  143.3708  162.5782 N.ar    1  UNL1       -0.2464
@<TRIPOS>BOND
     1    17    18    1
     2    18    19    2
     3    18    20    2
     4    18    11    1
     5    11    12   ar
     6    12    13   ar
     7    13    14   ar
     8    14    15   ar
     9    15    16   ar
    10    16     1    1
    11     1     2   ar
    12     2     3   ar
    13     3    29    1
    14    29    31    1
    15    31    32    1
    16    32    33   ar
    17    33    34   ar
    18    34    35   ar
    19    35    36   ar
    20    36    37   ar
    21     3     4   ar
    22     4     5   ar
    23     5    23    1
    24    23    24   ar
    25    24    25   ar
    26    25    26   ar
    27    26    27   ar
    28    27    28   ar
    29     5     6   ar
    30     6     7   ar
    31     7     8   ar
    32     8     9   ar
    33     9    10   ar
    34    16    11   ar
    35    10     1   ar
    36    37    32   ar
    37     9     4   ar
    38    28    23   ar
    39    17    21    1
    40    17    22    1
    41    29    30    1
@<TRIPOS>MOLECULE
*****
 37 41 0 0 0
SMALL
GASTEIGER

@<TRIPOS>ATOM
      1 C         141.2589  140.1346  161.7555 C.ar    1  UNL1        0.1664
      2 N         141.9287  141.0275  162.7577 N.ar    1  UNL1       -0.2120
      3 C         141.5759  140.9201  164.2116 C.ar    1  UNL1        0.1318
      4 C         140.5534  139.9199  164.6634 C.ar    1  UNL1        0.0491
      5 C         140.2006  139.8125  166.1174 C.ar    1  UNL1        0.0041
      6 C         139.1781  138.8123  166.5692 C.ar    1  UNL1        0.0002
      7 C         138.5084  137.9195  165.5670 C.ar    1  UNL1        0.0015
      8 C         138.8612  138.0269  164.1131 C.ar    1  UNL1        0.0192
      9 C         139.8837  139.0271  163.6612 C.ar    1  UNL1        0.0856
     10 N         140.2365  139.1344  162.2073 N.ar    1  UNL1       -0.2264
     11 C         142.8021  139.5055  159.7622 C.ar    1  UNL1        0.1277
     12 C         143.1548  139.6129  158.3082 C.ar    1  UNL1        0.0407
     13 C         142.3172  140.4567  157.3936 C.ar    1  UNL1        0.1003
     14 N         141.1270  141.1931  157.9329 N.ar    1  UNL1       -0.2421
     15 C         140.7742  141.0857  159.3869 C.ar    1  UNL1        0.1032
     16 C         141.6117  140.2420  160.3015 C.ar    1  UNL1        0.0735
     17 N         144.4772  137.8180  161.5915 N.3     1  UNL1       -0.2035
     18 S         143.6396  138.6618  160.6768 S.O2    1  UNL1        0.0573
     19 O         144.4741  139.8605  161.0185 O.2     1  UNL1       -0.1532
     20 O         142.8051  137.4631  160.3352 O.2     1  UNL1       -0.1532
     21 H         144.1320  136.8583  161.5799 H       1  UNL1        0.1442
     22 H         144.4220  138.1877  162.5406 H       1  UNL1        0.1442
     23 C         140.8704  140.7053  167.1196 C.ar    1  UNL1        0.0001
     24 C         142.1911  140.3107  167.7110 C.ar    1  UNL1        0.0000
     25 C         142.8609  141.2036  168.7132 C.ar    1  UNL1        0.0000
     26 C         142.2098  142.4910  169.1239 C.ar    1  UNL1        0.0000
     27 C         140.8890  142.8856  168.5323 C.ar    1  UNL1        0.0000
     28 C         140.2193  141.9928  167.5302 C.ar    1  UNL1        0.0000
     29 N         142.2456  141.8129  165.2138 N.pl3   1  UNL1       -0.3131
     30 H         142.5622  141.4423  166.0692 H       1  UNL1        0.1485
     31 C         142.4330  143.2704  164.9127 C.3     1  UNL1        0.1348
     32 C         141.3881  144.0164  164.1370 C.ar    1  UNL1        0.0788
     33 C         139.9972  144.1447  164.6837 C.ar    1  UNL1        0.0165
     34 C         138.9523  144.8907  163.9079 C.ar    1  UNL1        0.0029
     35 C         139.2983  145.5083  162.5855 C.ar    1  UNL1        0.0207
     36 C         140.6893  145.3800  162.0389 C.ar    1  UNL1        0.0985
     37 N         141.7342  144.6340  162.8146 N.ar    1  UNL1       -0.2464
@<TRIPOS>BOND
     1    17    18    1
     2    18    19    2
     3    18    20    2
     4    18    11    1
     5    11    12   ar
     6    12    13   ar
     7    13    14   ar
     8    14    15   ar
     9    15    16   ar
    10    16     1    1
    11     1     2   ar
    12     2     3   ar
    13     3    29    1
    14    29    31    1
    15    31    32    1
    16    32    33   ar
    17    33    34   ar
    18    34    35   ar
    19    35    36   ar
    20    36    37   ar
    21     3     4   ar
    22     4     5   ar
    23     5    23    1
    24    23    24   ar
    25    24    25   ar
    26    25    26   ar
    27    26    27   ar
    28    27    28   ar
    29     5     6   ar
    30     6     7   ar
    31     7     8   ar
    32     8     9   ar
    33     9    10   ar
    34    16    11   ar
    35    10     1   ar
    36    37    32   ar
    37     9     4   ar
    38    28    23   ar
    39    17    21    1
    40    17    22    1
    41    29    30    1
@<TRIPOS>MOLECULE
*****
 37 41 0 0 0
SMALL
GASTEIGER

@<TRIPOS>ATOM
      1 C         140.8358  140.9735  160.7808 C.ar    1  UNL1        0.1664
      2 N         140.4251  140.5042  162.1450 N.ar    1  UNL1       -0.2120
      3 C         141.4106  140.5312  163.2756 C.ar    1  UNL1        0.1318
      4 C         142.8067  141.0274  163.0418 C.ar    1  UNL1        0.0491
      5 C         143.7922  141.0544  164.1724 C.ar    1  UNL1        0.0041
      6 C         145.1883  141.5506  163.9387 C.ar    1  UNL1        0.0002
      7 C         145.5989  142.0199  162.5745 C.ar    1  UNL1        0.0015
      8 C         144.6134  141.9929  161.4439 C.ar    1  UNL1        0.0192
      9 C         143.2174  141.4967  161.6776 C.ar    1  UNL1        0.0856
     10 N         142.2319  141.4697  160.5471 N.ar    1  UNL1       -0.2264
     11 C         139.1348  142.2024  159.2488 C.ar    1  UNL1        0.1277
     12 C         138.1494  142.1754  158.1183 C.ar    1  UNL1        0.0407
     13 C         137.8794  140.8926  157.3891 C.ar    1  UNL1        0.1003
     14 N         138.5948  139.6368  157.7905 N.ar    1  UNL1       -0.2421
     15 C         139.5803  139.6638  158.9211 C.ar    1  UNL1        0.1032
     16 C         139.8503  140.9465  159.6502 C.ar    1  UNL1        0.0735
     17 N         139.6748  144.7679  160.7072 N.3     1  UNL1       -0.2035
     18 S         139.4049  143.4851  159.9780 S.O2    1  UNL1        0.0573
     19 O         138.3162  143.1580  160.9566 O.2     1  UNL1       -0.1532
     20 O         140.4935  143.8122  158.9993 O.2     1  UNL1       -0.1532
     21 H         140.4340  145.2684  160.2450 H       1  UNL1        0.1442
     22 H         139.9400  144.5621  161.6704 H       1  UNL1        0.1442
     23 C         143.3815  140.5852  165.5367 C.ar    1  UNL1        0.0001
     24 C         143.4698  139.1294  165.8871 C.ar    1  UNL1        0.0000
     25 C         143.0591  138.6601  167.2514 C.ar    1  UNL1        0.0000
     26 C         142.5601  139.6467  168.2652 C.ar    1  UNL1        0.0000
     27 C         142.4718  141.1025  167.9146 C.ar    1  UNL1        0.0000
     28 C         142.8825  141.5717  166.5504 C.ar    1  UNL1        0.0000
     29 N         140.9999  140.0620  164.6398 N.pl3   1  UNL1       -0.3131
     30 H         141.6208  139.5248  165.1831 H       1  UNL1        0.1485
     31 C         139.6433  140.4113  165.1763 C.3     1  UNL1        0.1348
     32 C         139.1564  141.8288  165.1191 C.ar    1  UNL1        0.0788
     33 C         139.9183  142.9125  165.8227 C.ar    1  UNL1        0.0165
     34 C         139.4314  144.3302  165.7656 C.ar    1  UNL1        0.0029
     35 C         138.1826  144.6641  165.0047 C.ar    1  UNL1        0.0207
     36 C         137.4206  143.5804  164.3011 C.ar    1  UNL1        0.0985
     37 N         137.9076  142.1628  164.3583 N.ar    1  UNL1       -0.2464
@<TRIPOS>BOND
     1    17    18    1
     2    18    19    2
     3    18    20    2
     4    18    11    1
     5    11    12   ar
     6    12    13   ar
     7    13    14   ar
     8    14    15   ar
     9    15    16   ar
    10    16     1    1
    11     1     2   ar
    12     2     3   ar
    13     3    29    1
    14    29    31    1
    15    31    32    1
    16    32    33   ar
    17    33    34   ar
    18    34    35   ar
    19    35    36   ar
    20    36    37   ar
    21     3     4   ar
    22     4     5   ar
    23     5    23    1
    24    23    24   ar
    25    24    25   ar
    26    25    26   ar
    27    26    27   ar
    28    27    28   ar
    29     5     6   ar
    30     6     7   ar
    31     7     8   ar
    32     8     9   ar
    33     9    10   ar
    34    16    11   ar
    35    10     1   ar
    36    37    32   ar
    37     9     4   ar
    38    28    23   ar
    39    17    21    1
    40    17    22    1
    41    29    30    1
@<TRIPOS>MOLECULE
*****
 37 41 0 0 0
SMALL
GASTEIGER

@<TRIPOS>ATOM
      1 C         141.1045  139.7853  159.9293 C.ar    1  UNL1        0.1664
      2 N         140.9782  141.1729  160.4850 N.ar    1  UNL1       -0.2120
      3 C         140.3203  141.3910  161.8153 C.ar    1  UNL1        0.1318
      4 C         139.7887  140.2215  162.5898 C.ar    1  UNL1        0.0491
      5 C         139.1308  140.4396  163.9201 C.ar    1  UNL1        0.0041
      6 C         138.5992  139.2703  164.6946 C.ar    1  UNL1        0.0002
      7 C         138.7255  137.8828  164.1389 C.ar    1  UNL1        0.0015
      8 C         139.3834  137.6647  162.8086 C.ar    1  UNL1        0.0192
      9 C         139.9150  138.8340  162.0341 C.ar    1  UNL1        0.0856
     10 N         140.5729  138.6159  160.7038 N.ar    1  UNL1       -0.2264
     11 C         140.9407  139.5842  157.3442 C.ar    1  UNL1        0.1277
     12 C         141.5986  139.3661  156.0139 C.ar    1  UNL1        0.0407
     13 C         143.0782  139.1309  155.9385 C.ar    1  UNL1        0.1003
     14 N         143.8998  139.1139  157.1933 N.ar    1  UNL1       -0.2421
     15 C         143.2419  139.3320  158.5236 C.ar    1  UNL1        0.1032
     16 C         141.7624  139.5672  158.5990 C.ar    1  UNL1        0.0735
     17 N         137.9816  140.0544  157.4950 N.3     1  UNL1       -0.2035
     18 S         139.4612  139.8193  157.4196 S.O2    1  UNL1        0.0573
     19 O         139.2318  138.3410  157.5294 O.2     1  UNL1       -0.1532
     20 O         139.6905  141.2976  157.3098 O.2     1  UNL1       -0.1532
     21 H         137.7932  141.0554  157.4418 H       1  UNL1        0.1442
     22 H         137.6235  139.6875  158.3769 H       1  UNL1        0.1442
     23 C         139.0045  141.8272  164.4758 C.ar    1  UNL1        0.0001
     24 C         137.8743  142.7107  164.0375 C.ar    1  UNL1        0.0000
     25 C         137.7480  144.0983  164.5932 C.ar    1  UNL1        0.0000
     26 C         138.7519  144.6023  165.5872 C.ar    1  UNL1        0.0000
     27 C         139.8822  143.7188  166.0255 C.ar    1  UNL1        0.0000
     28 C         140.0084  142.3313  165.4698 C.ar    1  UNL1        0.0000
     29 N         140.1940  142.7785  162.3710 N.pl3   1  UNL1       -0.3131
     30 H         139.3393  143.0783  162.7568 H       1  UNL1        0.1485
     31 C         141.3699  143.7092  162.3390 C.3     1  UNL1        0.1348
     32 C         142.6809  143.2819  162.9295 C.ar    1  UNL1        0.0788
     33 C         143.0499  143.7040  164.3207 C.ar    1  UNL1        0.0165
     34 C         144.3609  143.2767  164.9113 C.ar    1  UNL1        0.0029
     35 C         145.3029  142.4273  164.1105 C.ar    1  UNL1        0.0207
     36 C         144.9338  142.0051  162.7192 C.ar    1  UNL1        0.0985
     37 N         143.6228  142.4324  162.1287 N.ar    1  UNL1       -0.2464
@<TRIPOS>BOND
     1    17    18    1
     2    18    19    2
     3    18    20    2
     4    18    11    1
     5    11    12   ar
     6    12    13   ar
     7    13    14   ar
     8    14    15   ar
     9    15    16   ar
    10    16     1    1
    11     1     2   ar
    12     2     3   ar
    13     3    29    1
    14    29    31    1
    15    31    32    1
    16    32    33   ar
    17    33    34   ar
    18    34    35   ar
    19    35    36   ar
    20    36    37   ar
    21     3     4   ar
    22     4     5   ar
    23     5    23    1
    24    23    24   ar
    25    24    25   ar
    26    25    26   ar
    27    26    27   ar
    28    27    28   ar
    29     5     6   ar
    30     6     7   ar
    31     7     8   ar
    32     8     9   ar
    33     9    10   ar
    34    16    11   ar
    35    10     1   ar
    36    37    32   ar
    37     9     4   ar
    38    28    23   ar
    39    17    21    1
    40    17    22    1
    41    29    30    1
