@<TRIPOS>MOLECULE
*****
 32 35 0 0 0
SMALL
GASTEIGER

@<TRIPOS>ATOM
      1 C         142.3137  140.2099  164.1964 C.2     1  UNL1        0.1397
      2 C         142.7539  140.4923  162.7905 C.2     1  UNL1        0.1355
      3 N         142.2685  141.7242  162.0858 N.pl3   1  UNL1       -0.1998
      4 C         141.3429  142.6738  162.7869 C.2     1  UNL1        0.3442
      5 N         140.9027  142.3914  164.1927 N.2     1  UNL1       -0.0580
      6 C         141.3881  141.1595  164.8975 C.3     1  UNL1        0.2695
      7 H         142.5574  141.9095  161.1630 H       1  UNL1        0.2983
      8 C         140.9479  140.8771  166.3034 C.ar    1  UNL1        0.0414
      9 C         139.6883  140.1020  166.5535 C.ar    1  UNL1        0.0019
     10 C         139.2481  139.8197  167.9594 C.ar    1  UNL1        0.0113
     11 C         140.0675  140.3124  169.1152 C.ar    1  UNL1        0.0585
     12 CL        139.6273  140.0301  170.5210 Cl      1  UNL1       -0.0822
     13 C         141.3271  141.0876  168.8651 C.ar    1  UNL1        0.0226
     14 C         141.7673  141.3699  167.4591 C.ar    1  UNL1        0.0589
     15 CL        143.0269  142.1450  167.2090 Cl      1  UNL1       -0.0824
     16 C         140.8575  143.9057  162.0821 C.ar    1  UNL1        0.1931
     17 N         140.9142  144.1562  160.6042 N.ar    1  UNL1       -0.2297
     18 C         140.3219  145.5087  160.3402 C.ar    1  UNL1        0.1067
     19 C         139.8990  146.0942  161.6549 C.ar    1  UNL1        0.0577
     20 S         140.2300  145.1035  162.7314 S.2     1  UNL1       -0.0586
     21 C         142.7991  138.9780  164.9012 C.2     1  UNL1        0.3447
     22 O         144.1724  138.9507  165.5039 O.2     1  UNL1       -0.2450
     23 O         141.9113  137.7733  165.0032 O.3     1  UNL1       -0.4455
     24 C         139.6613  137.6471  163.7102 C.3     1  UNL1        0.0513
     25 C         141.1219  137.3203  163.8109 C.3     1  UNL1        0.2089
     26 C         143.6795  139.5427  162.0894 C.3     1  UNL1        0.1405
     27 N         143.5040  139.2679  160.6253 N.3     1  UNL1       -0.2617
     28 C         142.8894  137.9765  160.1730 C.3     1  UNL1        0.1050
     29 C         142.7138  137.7017  158.7088 C.3     1  UNL1        0.1595
     30 O         143.1529  138.7183  157.6970 O.3     1  UNL1       -0.3508
     31 C         143.7674  140.0097  158.1493 C.3     1  UNL1        0.1595
     32 C         143.9430  140.2845  159.6134 C.3     1  UNL1        0.1050
@<TRIPOS>BOND
     1    24    25    1
     2    25    23    1
     3    23    21    1
     4    21    22    2
     5    21     1    1
     6     1     2    2
     7     2    26    1
     8    26    27    1
     9    27    28    1
    10    28    29    1
    11    29    30    1
    12    30    31    1
    13    31    32    1
    14     2     3    1
    15     3     4    1
    16     4    16    1
    17    16    17   ar
    18    17    18   ar
    19    18    19   ar
    20    19    20   ar
    21     4     5    2
    22     5     6    1
    23     6     8    1
    24     8     9   ar
    25     9    10   ar
    26    10    11   ar
    27    11    12    1
    28    11    13   ar
    29    13    14   ar
    30    14    15    1
    31     6     1    1
    32    14     8   ar
    33    32    27    1
    34    20    16   ar
    35     3     7    1
@<TRIPOS>MOLECULE
*****
 32 35 0 0 0
SMALL
GASTEIGER

@<TRIPOS>ATOM
      1 C         140.3324  139.8534  164.2738 C.2     1  UNL1        0.1397
      2 C         140.1042  139.9572  162.7949 C.2     1  UNL1        0.1355
      3 N         140.0276  141.3048  162.1406 N.pl3   1  UNL1       -0.1998
      4 C         140.1790  142.5486  162.9652 C.2     1  UNL1        0.3442
      5 N         140.4071  142.4448  164.4440 N.2     1  UNL1       -0.0580
      6 C         140.4838  141.0972  165.0983 C.3     1  UNL1        0.2695
      7 H         139.8778  141.3729  161.1699 H       1  UNL1        0.2983
      8 C         140.7119  140.9934  166.5773 C.ar    1  UNL1        0.0414
      9 C         139.6027  140.5349  167.4769 C.ar    1  UNL1        0.0019
     10 C         139.8308  140.4311  168.9558 C.ar    1  UNL1        0.0113
     11 C         141.1682  140.7859  169.5352 C.ar    1  UNL1        0.0585
     12 CL        141.3962  140.6821  171.0141 Cl      1  UNL1       -0.0822
     13 C         142.2774  141.2444  168.6356 C.ar    1  UNL1        0.0226
     14 C         142.0493  141.3481  167.1566 C.ar    1  UNL1        0.0589
     15 CL        143.1586  141.8066  166.2570 Cl      1  UNL1       -0.0824
     16 C         140.1023  143.8962  162.3109 C.ar    1  UNL1        0.1931
     17 N         139.5139  145.1370  162.9142 N.ar    1  UNL1       -0.2297
     18 C         139.6485  146.2473  161.9146 C.ar    1  UNL1        0.1067
     19 C         140.3202  145.6926  160.6934 C.ar    1  UNL1        0.0577
     20 S         140.6006  144.2395  160.9384 S.2     1  UNL1       -0.0586
     21 C         140.4090  138.5058  164.9280 C.2     1  UNL1        0.3447
     22 O         139.1906  137.9148  165.5730 O.2     1  UNL1       -0.2450
     23 O         141.7042  137.7492  164.9374 O.3     1  UNL1       -0.4455
     24 C         143.8149  138.1674  166.3934 C.3     1  UNL1        0.0513
     25 C         142.9951  138.4750  165.1754 C.3     1  UNL1        0.2089
     26 C         139.9528  138.7133  161.9702 C.3     1  UNL1        0.1405
     27 N         140.9738  138.3784  160.9236 N.3     1  UNL1       -0.2617
     28 C         140.6730  138.6279  159.4754 C.3     1  UNL1        0.1050
     29 C         141.6941  138.2929  158.4289 C.3     1  UNL1        0.1595
     30 O         143.0159  137.7085  158.8305 O.3     1  UNL1       -0.3508
     31 C         143.3166  137.4590  160.2787 C.3     1  UNL1        0.1595
     32 C         142.2956  137.7939  161.3253 C.3     1  UNL1        0.1050
@<TRIPOS>BOND
     1    24    25    1
     2    25    23    1
     3    23    21    1
     4    21    22    2
     5    21     1    1
     6     1     2    2
     7     2    26    1
     8    26    27    1
     9    27    28    1
    10    28    29    1
    11    29    30    1
    12    30    31    1
    13    31    32    1
    14     2     3    1
    15     3     4    1
    16     4    16    1
    17    16    17   ar
    18    17    18   ar
    19    18    19   ar
    20    19    20   ar
    21     4     5    2
    22     5     6    1
    23     6     8    1
    24     8     9   ar
    25     9    10   ar
    26    10    11   ar
    27    11    12    1
    28    11    13   ar
    29    13    14   ar
    30    14    15    1
    31     6     1    1
    32    14     8   ar
    33    32    27    1
    34    20    16   ar
    35     3     7    1
@<TRIPOS>MOLECULE
*****
 32 35 0 0 0
SMALL
GASTEIGER

@<TRIPOS>ATOM
      1 C         142.3087  140.4891  164.2781 C.2     1  UNL1        0.1397
      2 C         142.3091  140.5484  162.7793 C.2     1  UNL1        0.1355
      3 N         141.7933  141.7693  162.0769 N.pl3   1  UNL1       -0.1998
      4 C         141.2770  142.9308  162.8733 C.2     1  UNL1        0.3442
      5 N         141.2766  142.8715  164.3721 N.2     1  UNL1       -0.0580
      6 C         141.7925  141.6507  165.0745 C.3     1  UNL1        0.2695
      7 H         141.7935  141.8082  161.0932 H       1  UNL1        0.2983
      8 C         141.7921  141.5914  166.5734 C.ar    1  UNL1        0.0414
      9 C         142.9582  142.1333  167.3457 C.ar    1  UNL1        0.0019
     10 C         142.9578  142.0740  168.8445 C.ar    1  UNL1        0.0113
     11 C         141.7913  141.4728  169.5711 C.ar    1  UNL1        0.0585
     12 CL        141.7909  141.4136  171.0699 Cl      1  UNL1       -0.0822
     13 C         140.6251  140.9309  168.7987 C.ar    1  UNL1        0.0226
     14 C         140.6256  140.9902  167.2999 C.ar    1  UNL1        0.0589
     15 CL        139.4594  140.4483  166.5275 Cl      1  UNL1       -0.0824
     16 C         140.7612  144.1517  162.1709 C.ar    1  UNL1        0.1931
     17 N         139.8828  145.2092  162.7711 N.ar    1  UNL1       -0.2297
     18 C         139.6119  146.2405  161.7161 C.ar    1  UNL1        0.1067
     19 C         140.3228  145.8204  160.4638 C.ar    1  UNL1        0.0577
     20 S         141.0331  144.5295  160.7449 S.2     1  UNL1       -0.0586
     21 C         142.8246  139.2683  164.9805 C.2     1  UNL1        0.3447
     22 O         144.2985  139.0951  165.1988 O.2     1  UNL1       -0.2450
     23 O         141.8666  138.2205  165.4647 O.3     1  UNL1       -0.4455
     24 C         139.6784  137.6736  164.1752 C.3     1  UNL1        0.0513
     25 C         141.1172  137.3758  164.4774 C.3     1  UNL1        0.2089
     26 C         142.8254  139.3869  161.9829 C.3     1  UNL1        0.1405
     27 N         142.1070  138.9509  160.7404 N.3     1  UNL1       -0.2617
     28 C         140.6127  138.8197  160.7450 C.3     1  UNL1        0.1050
     29 C         139.8943  138.3838  159.5025 C.3     1  UNL1        0.1595
     30 O         140.6701  138.0791  158.2554 O.3     1  UNL1       -0.3508
     31 C         142.1643  138.2103  158.2508 C.3     1  UNL1        0.1595
     32 C         142.8828  138.6462  159.4932 C.3     1  UNL1        0.1050
@<TRIPOS>BOND
     1    24    25    1
     2    25    23    1
     3    23    21    1
     4    21    22    2
     5    21     1    1
     6     1     2    2
     7     2    26    1
     8    26    27    1
     9    27    28    1
    10    28    29    1
    11    29    30    1
    12    30    31    1
    13    31    32    1
    14     2     3    1
    15     3     4    1
    16     4    16    1
    17    16    17   ar
    18    17    18   ar
    19    18    19   ar
    20    19    20   ar
    21     4     5    2
    22     5     6    1
    23     6     8    1
    24     8     9   ar
    25     9    10   ar
    26    10    11   ar
    27    11    12    1
    28    11    13   ar
    29    13    14   ar
    30    14    15    1
    31     6     1    1
    32    14     8   ar
    33    32    27    1
    34    20    16   ar
    35     3     7    1
@<TRIPOS>MOLECULE
*****
 32 35 0 0 0
SMALL
GASTEIGER

@<TRIPOS>ATOM
      1 C         141.3027  139.7636  164.0031 C.2     1  UNL1        0.1397
      2 C         141.5137  139.9872  162.5350 C.2     1  UNL1        0.1355
      3 N         141.2206  141.3285  161.9309 N.pl3   1  UNL1       -0.1998
      4 C         140.7165  142.4462  162.7948 C.2     1  UNL1        0.3442
      5 N         140.5055  142.2226  164.2630 N.2     1  UNL1       -0.0580
      6 C         140.7986  140.8813  164.8671 C.3     1  UNL1        0.2695
      7 H         141.3591  141.4752  160.9673 H       1  UNL1        0.2983
      8 C         140.5876  140.6578  166.3353 C.ar    1  UNL1        0.0414
      9 C         141.6691  141.0152  167.3114 C.ar    1  UNL1        0.0019
     10 C         141.4581  140.7917  168.7796 C.ar    1  UNL1        0.0113
     11 C         140.1657  140.2108  169.2717 C.ar    1  UNL1        0.0585
     12 CL        139.9547  139.9873  170.7399 Cl      1  UNL1       -0.0822
     13 C         139.0842  139.8534  168.2956 C.ar    1  UNL1        0.0226
     14 C         139.2952  140.0769  166.8274 C.ar    1  UNL1        0.0589
     15 CL        138.2138  139.7195  165.8514 Cl      1  UNL1       -0.0824
     16 C         140.4234  143.7875  162.1907 C.ar    1  UNL1        0.1931
     17 N         140.6977  144.1951  160.7734 N.ar    1  UNL1       -0.2297
     18 C         140.2483  145.6162  160.6045 C.ar    1  UNL1        0.1067
     19 C         139.6963  146.0869  161.9174 C.ar    1  UNL1        0.0577
     20 S         139.8045  144.9567  162.8977 S.2     1  UNL1       -0.0586
     21 C         141.5959  138.4223  164.6073 C.2     1  UNL1        0.3447
     22 O         140.5030  137.4030  164.7367 O.2     1  UNL1       -0.2450
     23 O         142.9818  138.1003  165.0820 O.3     1  UNL1       -0.4455
     24 C         144.9853  139.4853  164.1776 C.3     1  UNL1        0.0513
     25 C         143.9876  139.1987  165.2605 C.3     1  UNL1        0.2089
     26 C         142.0178  138.8694  161.6709 C.3     1  UNL1        0.1405
     27 N         142.2432  139.0973  160.2056 N.3     1  UNL1       -0.2617
     28 C         143.4923  139.7827  159.7366 C.3     1  UNL1        0.1050
     29 C         143.7176  140.0106  158.2712 C.3     1  UNL1        0.1595
     30 O         142.6939  139.5531  157.2749 O.3     1  UNL1       -0.3508
     31 C         141.4449  138.8676  157.7439 C.3     1  UNL1        0.1595
     32 C         141.2195  138.6397  159.2092 C.3     1  UNL1        0.1050
@<TRIPOS>BOND
     1    24    25    1
     2    25    23    1
     3    23    21    1
     4    21    22    2
     5    21     1    1
     6     1     2    2
     7     2    26    1
     8    26    27    1
     9    27    28    1
    10    28    29    1
    11    29    30    1
    12    30    31    1
    13    31    32    1
    14     2     3    1
    15     3     4    1
    16     4    16    1
    17    16    17   ar
    18    17    18   ar
    19    18    19   ar
    20    19    20   ar
    21     4     5    2
    22     5     6    1
    23     6     8    1
    24     8     9   ar
    25     9    10   ar
    26    10    11   ar
    27    11    12    1
    28    11    13   ar
    29    13    14   ar
    30    14    15    1
    31     6     1    1
    32    14     8   ar
    33    32    27    1
    34    20    16   ar
    35     3     7    1
@<TRIPOS>MOLECULE
*****
 32 35 0 0 0
SMALL
GASTEIGER

@<TRIPOS>ATOM
      1 C         141.1747  140.3183  163.9117 C.2     1  UNL1        0.1397
      2 C         140.9084  140.0790  162.4551 C.2     1  UNL1        0.1355
      3 N         140.6868  141.2406  161.5324 N.pl3   1  UNL1       -0.1998
      4 C         140.7314  142.6417  162.0662 C.2     1  UNL1        0.3442
      5 N         140.9977  142.8810  163.5229 N.2     1  UNL1       -0.0580
      6 C         141.2193  141.7194  164.4456 C.3     1  UNL1        0.2695
      7 H         140.5121  141.0835  160.5763 H       1  UNL1        0.2983
      8 C         141.4856  141.9588  165.9023 C.ar    1  UNL1        0.0414
      9 C         140.3439  142.0190  166.8734 C.ar    1  UNL1        0.0019
     10 C         140.6101  142.2584  168.3300 C.ar    1  UNL1        0.0113
     11 C         142.0180  142.4377  168.8156 C.ar    1  UNL1        0.0585
     12 CL        142.2842  142.6771  170.2722 Cl      1  UNL1       -0.0822
     13 C         143.1597  142.3775  167.8445 C.ar    1  UNL1        0.0226
     14 C         142.8934  142.1380  166.3878 C.ar    1  UNL1        0.0589
     15 CL        144.0351  142.0778  165.4167 Cl      1  UNL1       -0.0824
     16 C         140.5098  143.8033  161.1435 C.ar    1  UNL1        0.1931
     17 N         140.5565  143.7603  159.6449 N.ar    1  UNL1       -0.2297
     18 C         140.2781  145.1423  159.1325 C.ar    1  UNL1        0.1067
     19 C         140.0595  146.0395  160.3146 C.ar    1  UNL1        0.0577
     20 S         140.2027  145.2120  161.5574 S.2     1  UNL1       -0.0586
     21 C         141.3963  139.1567  164.8344 C.2     1  UNL1        0.3447
     22 O         142.7910  138.7551  165.2131 O.2     1  UNL1       -0.2450
     23 O         140.2232  138.3966  165.3785 O.3     1  UNL1       -0.4455
     24 C         137.9509  139.0411  166.4609 C.3     1  UNL1        0.0513
     25 C         138.8398  138.9632  165.2551 C.3     1  UNL1        0.2089
     26 C         140.8638  138.6779  161.9211 C.3     1  UNL1        0.1405
     27 N         140.9907  138.4327  160.4468 N.3     1  UNL1       -0.2617
     28 C         142.3359  138.1496  159.8466 C.3     1  UNL1        0.1050
     29 C         142.4627  137.9045  158.3722 C.3     1  UNL1        0.1595
     30 O         141.2444  137.9425  157.4980 O.3     1  UNL1       -0.3508
     31 C         139.8992  138.2256  158.0982 C.3     1  UNL1        0.1595
     32 C         139.7723  138.4707  159.5726 C.3     1  UNL1        0.1050
@<TRIPOS>BOND
     1    24    25    1
     2    25    23    1
     3    23    21    1
     4    21    22    2
     5    21     1    1
     6     1     2    2
     7     2    26    1
     8    26    27    1
     9    27    28    1
    10    28    29    1
    11    29    30    1
    12    30    31    1
    13    31    32    1
    14     2     3    1
    15     3     4    1
    16     4    16    1
    17    16    17   ar
    18    17    18   ar
    19    18    19   ar
    20    19    20   ar
    21     4     5    2
    22     5     6    1
    23     6     8    1
    24     8     9   ar
    25     9    10   ar
    26    10    11   ar
    27    11    12    1
    28    11    13   ar
    29    13    14   ar
    30    14    15    1
    31     6     1    1
    32    14     8   ar
    33    32    27    1
    34    20    16   ar
    35     3     7    1
@<TRIPOS>MOLECULE
*****
 32 35 0 0 0
SMALL
GASTEIGER

@<TRIPOS>ATOM
      1 C         142.4353  142.9302  160.5672 C.2     1  UNL1        0.1397
      2 C         142.4972  143.8193  159.3607 C.2     1  UNL1        0.1355
      3 N         143.5495  143.5936  158.3159 N.pl3   1  UNL1       -0.1998
      4 C         144.5399  142.4788  158.4776 C.2     1  UNL1        0.3442
      5 N         144.4780  141.5897  159.6841 N.2     1  UNL1       -0.0580
      6 C         143.4257  141.8154  160.7289 C.3     1  UNL1        0.2695
      7 H         143.5901  144.1771  157.5240 H       1  UNL1        0.2983
      8 C         143.3639  140.9263  161.9354 C.ar    1  UNL1        0.0414
      9 C         142.3050  139.8684  162.0340 C.ar    1  UNL1        0.0019
     10 C         142.2431  138.9793  163.2404 C.ar    1  UNL1        0.0113
     11 C         143.2401  139.1480  164.3484 C.ar    1  UNL1        0.0585
     12 CL        143.1782  138.2589  165.5549 Cl      1  UNL1       -0.0822
     13 C         144.2990  140.2058  164.2498 C.ar    1  UNL1        0.0226
     14 C         144.3609  141.0950  163.0433 C.ar    1  UNL1        0.0589
     15 CL        145.4198  142.1528  162.9447 Cl      1  UNL1       -0.0824
     16 C         145.5923  142.2531  157.4328 C.ar    1  UNL1        0.1931
     17 N         146.9639  142.8600  157.4173 N.ar    1  UNL1       -0.2297
     18 C         147.6771  142.3628  156.1949 C.ar    1  UNL1        0.1067
     19 C         146.7462  141.4486  155.4549 C.ar    1  UNL1        0.0577
     20 S         145.4578  141.3807  156.2199 S.2     1  UNL1       -0.0586
     21 C         141.3829  143.1560  161.6120 C.2     1  UNL1        0.3447
     22 O         140.0245  142.5398  161.4537 O.2     1  UNL1       -0.2450
     23 O         141.6890  143.9978  162.8152 O.3     1  UNL1       -0.4455
     24 C         143.6617  145.0175  164.1638 C.3     1  UNL1        0.0513
     25 C         142.9482  144.8116  162.8605 C.3     1  UNL1        0.2089
     26 C         141.5067  144.9342  159.1990 C.3     1  UNL1        0.1405
     27 N         140.5435  144.9208  158.0492 N.3     1  UNL1       -0.2617
     28 C         140.3289  146.1629  157.2361 C.3     1  UNL1        0.1050
     29 C         139.3657  146.1495  156.0862 C.3     1  UNL1        0.1595
     30 O         138.6172  144.8941  155.7495 O.3     1  UNL1       -0.3508
     31 C         138.8318  143.6519  156.5626 C.3     1  UNL1        0.1595
     32 C         139.7950  143.6653  157.7124 C.3     1  UNL1        0.1050
@<TRIPOS>BOND
     1    24    25    1
     2    25    23    1
     3    23    21    1
     4    21    22    2
     5    21     1    1
     6     1     2    2
     7     2    26    1
     8    26    27    1
     9    27    28    1
    10    28    29    1
    11    29    30    1
    12    30    31    1
    13    31    32    1
    14     2     3    1
    15     3     4    1
    16     4    16    1
    17    16    17   ar
    18    17    18   ar
    19    18    19   ar
    20    19    20   ar
    21     4     5    2
    22     5     6    1
    23     6     8    1
    24     8     9   ar
    25     9    10   ar
    26    10    11   ar
    27    11    12    1
    28    11    13   ar
    29    13    14   ar
    30    14    15    1
    31     6     1    1
    32    14     8   ar
    33    32    27    1
    34    20    16   ar
    35     3     7    1
@<TRIPOS>MOLECULE
*****
 32 35 0 0 0
SMALL
GASTEIGER

@<TRIPOS>ATOM
      1 C         142.0765  143.5468  159.9092 C.2     1  UNL1        0.1397
      2 C         142.8802  143.5927  158.6435 C.2     1  UNL1        0.1355
      3 N         142.3950  144.3993  157.4757 N.pl3   1  UNL1       -0.1998
      4 C         141.1060  145.1601  157.5735 C.2     1  UNL1        0.3442
      5 N         140.3022  145.1143  158.8391 N.2     1  UNL1       -0.0580
      6 C         140.7875  144.3076  160.0069 C.3     1  UNL1        0.2695
      7 H         142.9225  144.4294  156.6450 H       1  UNL1        0.2983
      8 C         139.9837  144.2618  161.2726 C.ar    1  UNL1        0.0414
      9 C         140.3028  145.2006  162.3981 C.ar    1  UNL1        0.0019
     10 C         139.4991  145.1549  163.6638 C.ar    1  UNL1        0.0113
     11 C         138.3761  144.1703  163.8039 C.ar    1  UNL1        0.0585
     12 CL        137.5723  144.1245  165.0695 Cl      1  UNL1       -0.0822
     13 C         138.0569  143.2315  162.6784 C.ar    1  UNL1        0.0226
     14 C         138.8608  143.2773  161.4127 C.ar    1  UNL1        0.0589
     15 CL        138.5416  142.3385  160.2872 Cl      1  UNL1       -0.0824
     16 C         140.6207  145.9668  156.4056 C.ar    1  UNL1        0.1931
     17 N         139.5201  146.9854  156.4341 N.ar    1  UNL1       -0.2297
     18 C         139.3700  147.5446  155.0503 C.ar    1  UNL1        0.1067
     19 C         140.3780  146.8715  154.1666 C.ar    1  UNL1        0.0577
     20 S         141.1509  145.8964  155.0042 S.2     1  UNL1       -0.0586
     21 C         142.5617  142.7402  161.0770 C.2     1  UNL1        0.3447
     22 O         141.8751  141.4567  161.4391 O.2     1  UNL1       -0.2450
     23 O         143.7336  143.2170  161.8828 O.3     1  UNL1       -0.4455
     24 C         143.6840  144.5573  164.1080 C.3     1  UNL1        0.0513
     25 C         143.6612  144.5279  162.6084 C.3     1  UNL1        0.2089
     26 C         144.1693  142.8318  158.5457 C.3     1  UNL1        0.1405
     27 N         144.2390  141.5763  157.7279 N.3     1  UNL1       -0.2617
     28 C         145.3259  141.4046  156.7085 C.3     1  UNL1        0.1050
     29 C         145.3955  140.1491  155.8906 C.3     1  UNL1        0.1595
     30 O         144.3783  139.0653  156.0922 O.3     1  UNL1       -0.3508
     31 C         143.2914  139.2370  157.1116 C.3     1  UNL1        0.1595
     32 C         143.2217  140.4925  157.9294 C.3     1  UNL1        0.1050
@<TRIPOS>BOND
     1    24    25    1
     2    25    23    1
     3    23    21    1
     4    21    22    2
     5    21     1    1
     6     1     2    2
     7     2    26    1
     8    26    27    1
     9    27    28    1
    10    28    29    1
    11    29    30    1
    12    30    31    1
    13    31    32    1
    14     2     3    1
    15     3     4    1
    16     4    16    1
    17    16    17   ar
    18    17    18   ar
    19    18    19   ar
    20    19    20   ar
    21     4     5    2
    22     5     6    1
    23     6     8    1
    24     8     9   ar
    25     9    10   ar
    26    10    11   ar
    27    11    12    1
    28    11    13   ar
    29    13    14   ar
    30    14    15    1
    31     6     1    1
    32    14     8   ar
    33    32    27    1
    34    20    16   ar
    35     3     7    1
@<TRIPOS>MOLECULE
*****
 32 35 0 0 0
SMALL
GASTEIGER

@<TRIPOS>ATOM
      1 C         141.4949  141.6091  161.7239 C.2     1  UNL1        0.1397
      2 C         142.1723  141.9280  160.4241 C.2     1  UNL1        0.1355
      3 N         142.2577  140.8870  159.3476 N.pl3   1  UNL1       -0.1998
      4 C         141.6658  139.5269  159.5708 C.2     1  UNL1        0.3442
      5 N         140.9884  139.2080  160.8705 N.2     1  UNL1       -0.0580
      6 C         140.9029  140.2490  161.9471 C.3     1  UNL1        0.2695
      7 H         142.7024  141.0963  158.4945 H       1  UNL1        0.2983
      8 C         140.2255  139.9300  163.2468 C.ar    1  UNL1        0.0414
      9 C         141.0137  139.3399  164.3784 C.ar    1  UNL1        0.0019
     10 C         140.3364  139.0208  165.6781 C.ar    1  UNL1        0.0113
     11 C         138.8706  139.2920  165.8464 C.ar    1  UNL1        0.0585
     12 CL        138.1933  138.9730  167.1461 Cl      1  UNL1       -0.0822
     13 C         138.0824  139.8821  164.7148 C.ar    1  UNL1        0.0226
     14 C         138.7598  140.2011  163.4150 C.ar    1  UNL1        0.0589
     15 CL        137.9716  140.7913  162.2835 Cl      1  UNL1       -0.0824
     16 C         141.7512  138.4859  158.4943 C.ar    1  UNL1        0.1931
     17 N         142.9431  137.6274  158.1906 N.ar    1  UNL1       -0.2297
     18 C         142.5883  136.7314  157.0411 C.ar    1  UNL1        0.1067
     19 C         141.1771  137.0362  156.6343 C.ar    1  UNL1        0.0577
     20 S         140.6597  138.1205  157.5324 S.2     1  UNL1       -0.0586
     21 C         141.4095  142.6501  162.8004 C.2     1  UNL1        0.3447
     22 O         142.5746  142.8785  163.7171 O.2     1  UNL1       -0.2450
     23 O         140.1589  143.4628  162.9602 O.3     1  UNL1       -0.4455
     24 C         138.0862  143.9028  164.4638 C.3     1  UNL1        0.0513
     25 C         139.5591  143.6564  164.3214 C.3     1  UNL1        0.2089
     26 C         142.7643  143.2881  160.2009 C.3     1  UNL1        0.1405
     27 N         142.1080  144.2449  159.2503 N.3     1  UNL1       -0.2617
     28 C         142.7013  144.4788  157.8926 C.3     1  UNL1        0.1050
     29 C         142.0449  145.4357  156.9420 C.3     1  UNL1        0.1595
     30 O         140.7952  146.1586  157.3491 O.3     1  UNL1       -0.3508
     31 C         140.2020  145.9247  158.7068 C.3     1  UNL1        0.1595
     32 C         140.8583  144.9679  159.6574 C.3     1  UNL1        0.1050
@<TRIPOS>BOND
     1    24    25    1
     2    25    23    1
     3    23    21    1
     4    21    22    2
     5    21     1    1
     6     1     2    2
     7     2    26    1
     8    26    27    1
     9    27    28    1
    10    28    29    1
    11    29    30    1
    12    30    31    1
    13    31    32    1
    14     2     3    1
    15     3     4    1
    16     4    16    1
    17    16    17   ar
    18    17    18   ar
    19    18    19   ar
    20    19    20   ar
    21     4     5    2
    22     5     6    1
    23     6     8    1
    24     8     9   ar
    25     9    10   ar
    26    10    11   ar
    27    11    12    1
    28    11    13   ar
    29    13    14   ar
    30    14    15    1
    31     6     1    1
    32    14     8   ar
    33    32    27    1
    34    20    16   ar
    35     3     7    1
@<TRIPOS>MOLECULE
*****
 32 35 0 0 0
SMALL
GASTEIGER

@<TRIPOS>ATOM
      1 C         142.4898  140.0016  160.1005 C.2     1  UNL1        0.1397
      2 C         143.2643  140.3317  158.8590 C.2     1  UNL1        0.1355
      3 N         143.3935  139.3156  157.7632 N.pl3   1  UNL1       -0.1998
      4 C         142.7482  137.9693  157.9088 C.2     1  UNL1        0.3442
      5 N         141.9738  137.6392  159.1502 N.2     1  UNL1       -0.0580
      6 C         141.8446  138.6553  160.2461 C.3     1  UNL1        0.2695
      7 H         143.9018  139.5323  156.9484 H       1  UNL1        0.2983
      8 C         141.0701  138.3252  161.4875 C.ar    1  UNL1        0.0414
      9 C         141.7734  137.7431  162.6777 C.ar    1  UNL1        0.0019
     10 C         140.9990  137.4129  163.9191 C.ar    1  UNL1        0.0113
     11 C         139.5211  137.6648  163.9705 C.ar    1  UNL1        0.0585
     12 CL        138.7467  137.3346  165.2119 Cl      1  UNL1       -0.0822
     13 C         138.8178  138.2469  162.7803 C.ar    1  UNL1        0.0226
     14 C         139.5923  138.5771  161.5388 C.ar    1  UNL1        0.0589
     15 CL        138.8890  139.1592  160.3487 Cl      1  UNL1       -0.0824
     16 C         142.8774  136.9532  156.8130 C.ar    1  UNL1        0.1931
     17 N         142.7110  137.2135  155.3451 N.ar    1  UNL1       -0.2297
     18 C         142.9264  135.9196  154.6176 C.ar    1  UNL1        0.1067
     19 C         143.2260  134.8596  155.6358 C.ar    1  UNL1        0.0577
     20 S         143.1957  135.4984  156.9926 S.2     1  UNL1       -0.0586
     21 C         142.3607  141.0177  161.1963 C.2     1  UNL1        0.3447
     22 O         141.0969  141.8135  161.3360 O.2     1  UNL1       -0.2450
     23 O         143.4952  141.2380  162.1524 O.3     1  UNL1       -0.4455
     24 C         144.7847  139.7272  163.8272 C.3     1  UNL1        0.0513
     25 C         144.4779  140.1360  162.4169 C.3     1  UNL1        0.2089
     26 C         143.9096  141.6780  158.7134 C.3     1  UNL1        0.1405
     27 N         144.4387  142.1157  157.3798 N.3     1  UNL1       -0.2617
     28 C         145.9089  142.0353  157.0931 C.3     1  UNL1        0.1050
     29 C         146.4380  142.4731  155.7595 C.3     1  UNL1        0.1595
     30 O         145.4970  142.9912  154.7127 O.3     1  UNL1       -0.3508
     31 C         144.0268  143.0717  154.9994 C.3     1  UNL1        0.1595
     32 C         143.4977  142.6339  156.3329 C.3     1  UNL1        0.1050
@<TRIPOS>BOND
     1    24    25    1
     2    25    23    1
     3    23    21    1
     4    21    22    2
     5    21     1    1
     6     1     2    2
     7     2    26    1
     8    26    27    1
     9    27    28    1
    10    28    29    1
    11    29    30    1
    12    30    31    1
    13    31    32    1
    14     2     3    1
    15     3     4    1
    16     4    16    1
    17    16    17   ar
    18    17    18   ar
    19    18    19   ar
    20    19    20   ar
    21     4     5    2
    22     5     6    1
    23     6     8    1
    24     8     9   ar
    25     9    10   ar
    26    10    11   ar
    27    11    12    1
    28    11    13   ar
    29    13    14   ar
    30    14    15    1
    31     6     1    1
    32    14     8   ar
    33    32    27    1
    34    20    16   ar
    35     3     7    1
