@<TRIPOS>MOLECULE
*****
 34 36 0 0 0
SMALL
GASTEIGER

@<TRIPOS>ATOM
      1 C         138.8066  144.8331  162.1093 C.3     1  UNL1        0.1034
      2 C         138.5803  141.3498  164.9493 C.3     1  UNL1        0.1687
      3 C         139.3940  142.5579  165.3075 C.3     1  UNL1        0.0609
      4 C         139.4694  143.7191  164.3608 C.3     1  UNL1        0.0759
      5 N         138.7312  143.6720  163.0559 N.3     1  UNL1       -0.2704
      6 C         137.9175  142.4639  162.6977 C.3     1  UNL1        0.0759
      7 C         137.8421  141.3028  163.6443 C.3     1  UNL1        0.0609
      8 O         138.5049  140.1887  165.8959 O.3     1  UNL1       -0.4782
      9 C         143.3835  138.8051  167.0295 C.3     1  UNL1        0.0329
     10 C         142.0318  139.2809  167.4729 C.ar    1  UNL1        0.0023
     11 C         141.7678  139.5408  168.9264 C.ar    1  UNL1        0.0547
     12 CL        142.8554  139.3248  169.9366 Cl      1  UNL1       -0.0825
     13 C         140.4161  140.0166  169.3697 C.ar    1  UNL1        0.0142
     14 C         139.3285  140.2326  168.3596 C.ar    1  UNL1        0.0386
     15 C         139.5926  139.9727  166.9061 C.ar    1  UNL1        0.1485
     16 C         140.9442  139.4969  166.4627 C.ar    1  UNL1        0.0884
     17 CL        141.2083  139.2370  165.0091 Cl      1  UNL1       -0.0794
     18 C         140.1175  145.5216  161.8698 C.3     1  UNL1        0.1459
     19 O         140.3583  146.8920  162.4300 O.3     1  UNL1       -0.3813
     20 H         141.2484  147.1897  162.1850 H       1  UNL1        0.2105
     21 C         141.1877  144.8396  161.0700 C.3     1  UNL1        0.1204
     22 N         141.6587  143.4702  161.4613 N.am    1  UNL1       -0.2987
     23 C         143.0310  143.2854  162.0379 C.2     1  UNL1        0.2457
     24 O         143.9324  144.4699  162.2232 O.2     1  UNL1       -0.2704
     25 H         141.0670  142.6928  161.3396 H       1  UNL1        0.1498
     26 C         143.5019  141.9160  162.4291 C.2     1  UNL1        0.0842
     27 C         143.5442  140.7101  161.5381 C.2     1  UNL1        0.1242
     28 N         144.0817  139.5610  162.3383 N.2     1  UNL1       -0.1507
     29 N         144.3717  140.0566  163.7241 N.2     1  UNL1       -0.1629
     30 C         144.0134  141.5121  163.7801 C.3     1  UNL1        0.2474
     31 C         144.1437  142.4067  164.9772 C.3     1  UNL1        0.4237
     32 F         144.2738  143.3012  166.1742 F       1  UNL1       -0.1675
     33 F         145.5706  142.6886  164.6112 F       1  UNL1       -0.1675
     34 F         142.7166  142.1247  165.3432 F       1  UNL1       -0.1675
@<TRIPOS>BOND
     1     9    10    1
     2    10    11   ar
     3    11    12    1
     4    11    13   ar
     5    13    14   ar
     6    14    15   ar
     7    15     8    1
     8     8     2    1
     9     2     3    1
    10     3     4    1
    11     4     5    1
    12     5     1    1
    13     1    18    1
    14    18    19    1
    15    18    21    1
    16    21    22    1
    17    22    23   am
    18    23    24    2
    19    23    26    1
    20    26    27    2
    21    27    28    1
    22    28    29    2
    23    29    30    1
    24    30    31    1
    25    31    32    1
    26    31    33    1
    27    31    34    1
    28     5     6    1
    29     6     7    1
    30    15    16   ar
    31    16    17    1
    32    16    10   ar
    33     7     2    1
    34    30    26    1
    35    19    20    1
    36    22    25    1
@<TRIPOS>MOLECULE
*****
 34 36 0 0 0
SMALL
GASTEIGER

@<TRIPOS>ATOM
      1 C         138.4781  138.8905  161.2162 C.3     1  UNL1        0.1034
      2 C         138.7271  139.1867  165.6995 C.3     1  UNL1        0.1687
      3 C         139.2120  137.9507  165.0014 C.3     1  UNL1        0.0609
      4 C         139.1290  137.8520  163.5069 C.3     1  UNL1        0.0759
      5 N         138.5611  138.9892  162.7106 N.3     1  UNL1       -0.2704
      6 C         138.0762  140.2252  163.4087 C.3     1  UNL1        0.0759
      7 C         138.1592  140.3239  164.9031 C.3     1  UNL1        0.0609
      8 O         138.8101  139.2854  167.1939 O.3     1  UNL1       -0.4782
      9 C         140.9809  141.6586  171.2751 C.3     1  UNL1        0.0329
     10 C         141.0845  141.1215  169.8783 C.ar    1  UNL1        0.0023
     11 C         142.3769  141.2339  169.1255 C.ar    1  UNL1        0.0547
     12 CL        143.5659  141.8834  169.7694 Cl      1  UNL1       -0.0825
     13 C         142.4805  140.6968  167.7288 C.ar    1  UNL1        0.0142
     14 C         141.2916  140.0473  167.0849 C.ar    1  UNL1        0.0386
     15 C         139.9991  139.9349  167.8378 C.ar    1  UNL1        0.1485
     16 C         139.8956  140.4720  169.2345 C.ar    1  UNL1        0.0884
     17 CL        138.6030  140.3596  169.9873 Cl      1  UNL1       -0.0794
     18 C         137.5921  139.8280  160.4506 C.3     1  UNL1        0.1459
     19 O         136.1374  139.5083  160.2731 O.3     1  UNL1       -0.3813
     20 H         135.7121  140.2119  159.7584 H       1  UNL1        0.2105
     21 C         138.1608  141.0853  159.8626 C.3     1  UNL1        0.1204
     22 N         139.4805  141.6094  160.3463 N.am    1  UNL1       -0.2987
     23 C         139.5358  142.8741  161.1509 C.2     1  UNL1        0.2457
     24 O         138.2715  143.6148  161.4717 O.2     1  UNL1       -0.2704
     25 H         140.3102  141.1232  160.1358 H       1  UNL1        0.1498
     26 C         140.8554  143.3981  161.6347 C.2     1  UNL1        0.0842
     27 C         142.0357  143.7427  160.7756 C.2     1  UNL1        0.1242
     28 N         143.1362  144.2272  161.6724 N.2     1  UNL1       -0.1507
     29 N         142.6360  144.1820  163.0858 N.2     1  UNL1       -0.1629
     30 C         141.2264  143.6696  163.0625 C.3     1  UNL1        0.2474
     31 C         140.3429  143.4647  164.2573 C.3     1  UNL1        0.4237
     32 F         139.4594  143.2598  165.4520 F       1  UNL1       -0.1675
     33 F         140.8702  142.0686  164.4077 F       1  UNL1       -0.1675
     34 F         139.8156  144.8609  164.1068 F       1  UNL1       -0.1675
@<TRIPOS>BOND
     1     9    10    1
     2    10    11   ar
     3    11    12    1
     4    11    13   ar
     5    13    14   ar
     6    14    15   ar
     7    15     8    1
     8     8     2    1
     9     2     3    1
    10     3     4    1
    11     4     5    1
    12     5     1    1
    13     1    18    1
    14    18    19    1
    15    18    21    1
    16    21    22    1
    17    22    23   am
    18    23    24    2
    19    23    26    1
    20    26    27    2
    21    27    28    1
    22    28    29    2
    23    29    30    1
    24    30    31    1
    25    31    32    1
    26    31    33    1
    27    31    34    1
    28     5     6    1
    29     6     7    1
    30    15    16   ar
    31    16    17    1
    32    16    10   ar
    33     7     2    1
    34    30    26    1
    35    19    20    1
    36    22    25    1
@<TRIPOS>MOLECULE
*****
 34 36 0 0 0
SMALL
GASTEIGER

@<TRIPOS>ATOM
      1 C         141.7750  140.9146  168.7160 C.3     1  UNL1        0.1034
      2 C         144.0407  139.6808  165.0290 C.3     1  UNL1        0.1687
      3 C         143.6555  138.6532  166.0516 C.3     1  UNL1        0.0609
      4 C         142.9002  139.0645  167.2807 C.3     1  UNL1        0.0759
      5 N         142.5302  140.5034  167.4871 N.3     1  UNL1       -0.2704
      6 C         142.9153  141.5310  166.4645 C.3     1  UNL1        0.0759
      7 C         143.6706  141.1197  165.2355 C.3     1  UNL1        0.0609
      8 O         144.7959  139.2695  163.8000 O.3     1  UNL1       -0.4782
      9 C         143.5928  141.5775  159.3027 C.3     1  UNL1        0.0329
     10 C         143.5027  140.3946  160.2207 C.ar    1  UNL1        0.0023
     11 C         142.7210  139.1828  159.8079 C.ar    1  UNL1        0.0547
     12 CL        142.0294  139.1539  158.4771 Cl      1  UNL1       -0.0825
     13 C         142.6309  137.9999  160.7258 C.ar    1  UNL1        0.0142
     14 C         143.3225  138.0288  162.0565 C.ar    1  UNL1        0.0386
     15 C         144.1042  139.2406  162.4693 C.ar    1  UNL1        0.1485
     16 C         144.1943  140.4235  161.5514 C.ar    1  UNL1        0.0884
     17 CL        144.9761  141.6353  161.9642 Cl      1  UNL1       -0.0794
     18 C         140.6582  140.0565  169.2324 C.3     1  UNL1        0.1459
     19 O         140.8114  139.3306  170.5360 O.3     1  UNL1       -0.3813
     20 H         140.0043  138.8256  170.7216 H       1  UNL1        0.2105
     21 C         139.3883  139.9244  168.4449 C.3     1  UNL1        0.1204
     22 N         139.3679  140.2838  166.9888 N.am    1  UNL1       -0.2987
     23 C         138.3900  139.6192  166.0658 C.2     1  UNL1        0.2457
     24 O         137.4325  138.5951  166.5990 O.2     1  UNL1       -0.2704
     25 H         139.9964  140.9560  166.6388 H       1  UNL1        0.1498
     26 C         138.3696  139.9786  164.6097 C.2     1  UNL1        0.0842
     27 C         137.6532  141.1469  163.9999 C.2     1  UNL1        0.1242
     28 N         137.9029  141.1233  162.5210 N.2     1  UNL1       -0.1507
     29 N         138.7736  139.9404  162.2167 N.2     1  UNL1       -0.1629
     30 C         139.0621  139.2330  163.5076 C.3     1  UNL1        0.2474
     31 C         139.8965  137.9969  163.6683 C.3     1  UNL1        0.4237
     32 F         140.7310  136.7608  163.8289 F       1  UNL1       -0.1675
     33 F         138.7830  137.1708  163.0959 F       1  UNL1       -0.1675
     34 F         141.0100  138.8230  164.2406 F       1  UNL1       -0.1675
@<TRIPOS>BOND
     1     9    10    1
     2    10    11   ar
     3    11    12    1
     4    11    13   ar
     5    13    14   ar
     6    14    15   ar
     7    15     8    1
     8     8     2    1
     9     2     3    1
    10     3     4    1
    11     4     5    1
    12     5     1    1
    13     1    18    1
    14    18    19    1
    15    18    21    1
    16    21    22    1
    17    22    23   am
    18    23    24    2
    19    23    26    1
    20    26    27    2
    21    27    28    1
    22    28    29    2
    23    29    30    1
    24    30    31    1
    25    31    32    1
    26    31    33    1
    27    31    34    1
    28     5     6    1
    29     6     7    1
    30    15    16   ar
    31    16    17    1
    32    16    10   ar
    33     7     2    1
    34    30    26    1
    35    19    20    1
    36    22    25    1
@<TRIPOS>MOLECULE
*****
 34 36 0 0 0
SMALL
GASTEIGER

@<TRIPOS>ATOM
      1 C         140.3928  144.9340  158.6081 C.3     1  UNL1        0.1034
      2 C         138.5714  143.9117  162.5940 C.3     1  UNL1        0.1687
      3 C         138.4875  142.9352  161.4584 C.3     1  UNL1        0.0609
      4 C         139.0947  143.2760  160.1298 C.3     1  UNL1        0.0759
      5 N         139.7857  144.5932  159.9367 N.3     1  UNL1       -0.2704
      6 C         139.8696  145.5697  161.0723 C.3     1  UNL1        0.0759
      7 C         139.2624  145.2290  162.4009 C.3     1  UNL1        0.0609
      8 O         137.9642  143.5709  163.9226 O.3     1  UNL1       -0.4782
      9 C         139.4104  139.0438  166.0235 C.3     1  UNL1        0.0329
     10 C         139.4839  140.5416  165.9874 C.ar    1  UNL1        0.0023
     11 C         140.3541  141.2735  166.9657 C.ar    1  UNL1        0.0547
     12 CL        141.1507  140.5077  167.9801 Cl      1  UNL1       -0.0825
     13 C         140.4276  142.7713  166.9296 C.ar    1  UNL1        0.0142
     14 C         139.6310  143.5371  165.9153 C.ar    1  UNL1        0.0386
     15 C         138.7609  142.8051  164.9370 C.ar    1  UNL1        0.1485
     16 C         138.6873  141.3074  164.9731 C.ar    1  UNL1        0.0884
     17 CL        137.8171  140.5754  163.9948 Cl      1  UNL1       -0.0794
     18 C         141.8787  144.8527  158.4195 C.3     1  UNL1        0.1459
     19 O         142.6362  146.0427  157.9096 O.3     1  UNL1       -0.3813
     20 H         143.5789  145.8230  157.8464 H       1  UNL1        0.2105
     21 C         142.6070  143.5813  158.7409 C.3     1  UNL1        0.1204
     22 N         143.4460  143.4905  159.9810 N.am    1  UNL1       -0.2987
     23 C         143.1825  142.4099  160.9873 C.2     1  UNL1        0.2457
     24 O         142.0800  141.4200  160.7535 O.2     1  UNL1       -0.2704
     25 H         144.1696  144.1402  160.1344 H       1  UNL1        0.1498
     26 C         144.0215  142.3191  162.2274 C.2     1  UNL1        0.0842
     27 C         145.0330  141.2540  162.5315 C.2     1  UNL1        0.1242
     28 N         145.6330  141.5541  163.8732 N.2     1  UNL1       -0.1507
     29 N         144.9922  142.8046  164.3983 N.2     1  UNL1       -0.1629
     30 C         143.9963  143.2773  163.3811 C.3     1  UNL1        0.2474
     31 C         143.1277  144.4947  163.4973 C.3     1  UNL1        0.4237
     32 F         142.2590  145.7121  163.6135 F       1  UNL1       -0.1675
     33 F         144.2614  145.3498  163.0141 F       1  UNL1       -0.1675
     34 F         141.9939  143.6396  163.9804 F       1  UNL1       -0.1675
@<TRIPOS>BOND
     1     9    10    1
     2    10    11   ar
     3    11    12    1
     4    11    13   ar
     5    13    14   ar
     6    14    15   ar
     7    15     8    1
     8     8     2    1
     9     2     3    1
    10     3     4    1
    11     4     5    1
    12     5     1    1
    13     1    18    1
    14    18    19    1
    15    18    21    1
    16    21    22    1
    17    22    23   am
    18    23    24    2
    19    23    26    1
    20    26    27    2
    21    27    28    1
    22    28    29    2
    23    29    30    1
    24    30    31    1
    25    31    32    1
    26    31    33    1
    27    31    34    1
    28     5     6    1
    29     6     7    1
    30    15    16   ar
    31    16    17    1
    32    16    10   ar
    33     7     2    1
    34    30    26    1
    35    19    20    1
    36    22    25    1
@<TRIPOS>MOLECULE
*****
 34 36 0 0 0
SMALL
GASTEIGER

@<TRIPOS>ATOM
      1 C         138.0370  138.8148  161.3193 C.3     1  UNL1        0.1034
      2 C         138.6694  139.1332  165.7632 C.3     1  UNL1        0.1687
      3 C         138.1737  140.3187  164.9893 C.3     1  UNL1        0.0609
      4 C         137.9629  140.2125  163.5080 C.3     1  UNL1        0.0759
      5 N         138.2478  138.9209  162.8005 N.3     1  UNL1       -0.2704
      6 C         138.7435  137.7354  163.5744 C.3     1  UNL1        0.0759
      7 C         138.9543  137.8415  165.0557 C.3     1  UNL1        0.0609
      8 O         138.8802  139.2393  167.2445 O.3     1  UNL1       -0.4782
      9 C         141.1333  141.9721  171.0466 C.3     1  UNL1        0.0329
     10 C         141.1929  141.3502  169.6829 C.ar    1  UNL1        0.0023
     11 C         142.4387  141.4727  168.8565 C.ar    1  UNL1        0.0547
     12 CL        143.6250  142.2172  169.3938 Cl      1  UNL1       -0.0825
     13 C         142.4984  140.8508  167.4928 C.ar    1  UNL1        0.0142
     14 C         141.3123  140.1064  166.9555 C.ar    1  UNL1        0.0386
     15 C         140.0664  139.9838  167.7818 C.ar    1  UNL1        0.1485
     16 C         140.0068  140.6057  169.1455 C.ar    1  UNL1        0.0884
     17 CL        138.7609  140.4832  169.9719 Cl      1  UNL1       -0.0794
     18 C         139.2060  138.9233  160.3856 C.3     1  UNL1        0.1459
     19 O         138.9774  139.0334  158.9073 O.3     1  UNL1       -0.3813
     20 H         139.8316  139.0947  158.4517 H       1  UNL1        0.2105
     21 C         140.6036  138.9216  160.9305 C.3     1  UNL1        0.1204
     22 N         141.4065  140.1886  160.9395 N.am    1  UNL1       -0.2987
     23 C         141.8209  140.8046  162.2429 C.2     1  UNL1        0.2457
     24 O         141.4325  140.1536  163.5372 O.2     1  UNL1       -0.2704
     25 H         141.6615  140.6159  160.0900 H       1  UNL1        0.1498
     26 C         142.6239  142.0716  162.2519 C.2     1  UNL1        0.0842
     27 C         142.2103  143.3818  161.6500 C.2     1  UNL1        0.1242
     28 N         143.3122  144.3708  161.8906 N.2     1  UNL1       -0.1507
     29 N         144.4067  143.6718  162.6412 N.2     1  UNL1       -0.1629
     30 C         143.9813  142.2508  162.8645 C.3     1  UNL1        0.2474
     31 C         144.7742  141.1945  163.5755 C.3     1  UNL1        0.4237
     32 F         145.5671  140.1382  164.2865 F       1  UNL1       -0.1675
     33 F         144.3866  141.7921  164.8955 F       1  UNL1       -0.1675
     34 F         145.1618  140.5969  162.2555 F       1  UNL1       -0.1675
@<TRIPOS>BOND
     1     9    10    1
     2    10    11   ar
     3    11    12    1
     4    11    13   ar
     5    13    14   ar
     6    14    15   ar
     7    15     8    1
     8     8     2    1
     9     2     3    1
    10     3     4    1
    11     4     5    1
    12     5     1    1
    13     1    18    1
    14    18    19    1
    15    18    21    1
    16    21    22    1
    17    22    23   am
    18    23    24    2
    19    23    26    1
    20    26    27    2
    21    27    28    1
    22    28    29    2
    23    29    30    1
    24    30    31    1
    25    31    32    1
    26    31    33    1
    27    31    34    1
    28     5     6    1
    29     6     7    1
    30    15    16   ar
    31    16    17    1
    32    16    10   ar
    33     7     2    1
    34    30    26    1
    35    19    20    1
    36    22    25    1
@<TRIPOS>MOLECULE
*****
 34 36 0 0 0
SMALL
GASTEIGER

@<TRIPOS>ATOM
      1 C         139.2180  139.5842  158.6229 C.3     1  UNL1        0.1034
      2 C         140.1441  137.8638  162.6766 C.3     1  UNL1        0.1687
      3 C         138.7197  138.0974  162.2686 C.3     1  UNL1        0.0609
      4 C         138.4110  138.6709  160.9173 C.3     1  UNL1        0.0759
      5 N         139.5267  139.0107  159.9741 N.3     1  UNL1       -0.2704
      6 C         140.9511  138.7772  160.3821 C.3     1  UNL1        0.0759
      7 C         141.2599  138.2037  161.7333 C.3     1  UNL1        0.0609
      8 O         140.4529  137.2904  164.0278 O.3     1  UNL1       -0.4782
      9 C         139.8388  140.7817  167.8270 C.3     1  UNL1        0.0329
     10 C         140.7328  139.9093  166.9965 C.ar    1  UNL1        0.0023
     11 C         142.2137  139.9101  167.2350 C.ar    1  UNL1        0.0547
     12 CL        142.8007  140.7834  168.3041 Cl      1  UNL1       -0.0825
     13 C         143.1076  139.0377  166.4045 C.ar    1  UNL1        0.0142
     14 C         142.5207  138.1645  165.3355 C.ar    1  UNL1        0.0386
     15 C         141.0399  138.1636  165.0969 C.ar    1  UNL1        0.1485
     16 C         140.1459  139.0360  165.9274 C.ar    1  UNL1        0.0884
     17 CL        138.6649  139.0352  165.6888 Cl      1  UNL1       -0.0794
     18 C         138.2041  140.6814  158.4876 C.3     1  UNL1        0.1459
     19 O         136.9584  140.4564  157.6829 O.3     1  UNL1       -0.3813
     20 H         136.4147  141.2596  157.6975 H       1  UNL1        0.2105
     21 C         138.4360  142.0036  159.1571 C.3     1  UNL1        0.1204
     22 N         139.4201  142.1112  160.2840 N.am    1  UNL1       -0.2987
     23 C         138.9389  142.0883  161.7046 C.2     1  UNL1        0.2457
     24 O         137.4738  141.9578  161.9981 O.2     1  UNL1       -0.2704
     25 H         140.3817  142.1969  160.0914 H       1  UNL1        0.1498
     26 C         139.9230  142.1960  162.8316 C.2     1  UNL1        0.0842
     27 C         141.3001  141.6021  162.8593 C.2     1  UNL1        0.1242
     28 N         141.9309  141.9555  164.1736 N.2     1  UNL1       -0.1507
     29 N         140.9436  142.7677  164.9581 N.2     1  UNL1       -0.1629
     30 C         139.7027  142.9163  164.1287 C.3     1  UNL1        0.2474
     31 C         138.4596  143.6556  164.5266 C.3     1  UNL1        0.4237
     32 F         137.2164  144.3947  164.9245 F       1  UNL1       -0.1675
     33 F         139.0673  144.9384  164.0419 F       1  UNL1       -0.1675
     34 F         137.8518  142.3727  165.0112 F       1  UNL1       -0.1675
@<TRIPOS>BOND
     1     9    10    1
     2    10    11   ar
     3    11    12    1
     4    11    13   ar
     5    13    14   ar
     6    14    15   ar
     7    15     8    1
     8     8     2    1
     9     2     3    1
    10     3     4    1
    11     4     5    1
    12     5     1    1
    13     1    18    1
    14    18    19    1
    15    18    21    1
    16    21    22    1
    17    22    23   am
    18    23    24    2
    19    23    26    1
    20    26    27    2
    21    27    28    1
    22    28    29    2
    23    29    30    1
    24    30    31    1
    25    31    32    1
    26    31    33    1
    27    31    34    1
    28     5     6    1
    29     6     7    1
    30    15    16   ar
    31    16    17    1
    32    16    10   ar
    33     7     2    1
    34    30    26    1
    35    19    20    1
    36    22    25    1
@<TRIPOS>MOLECULE
*****
 34 36 0 0 0
SMALL
GASTEIGER

@<TRIPOS>ATOM
      1 C         138.4615  140.4426  158.3120 C.3     1  UNL1        0.1034
      2 C         139.0043  138.3221  162.2437 C.3     1  UNL1        0.1687
      3 C         140.0406  138.1844  161.1680 C.3     1  UNL1        0.0609
      4 C         139.8596  138.8913  159.8574 C.3     1  UNL1        0.0759
      5 N         138.6424  139.7358  159.6225 N.3     1  UNL1       -0.2704
      6 C         137.6061  139.8735  160.6983 C.3     1  UNL1        0.0759
      7 C         137.7871  139.1667  162.0088 C.3     1  UNL1        0.0609
      8 O         139.1852  137.6153  163.5543 O.3     1  UNL1       -0.4782
      9 C         139.9101  140.6188  167.7321 C.3     1  UNL1        0.0329
     10 C         140.4583  139.6933  166.6866 C.ar    1  UNL1        0.0023
     11 C         141.9170  139.3440  166.6847 C.ar    1  UNL1        0.0547
     12 CL        142.8276  139.9203  167.7281 Cl      1  UNL1       -0.0825
     13 C         142.4652  138.4185  165.6392 C.ar    1  UNL1        0.0142
     14 C         141.5546  137.8423  164.5958 C.ar    1  UNL1        0.0386
     15 C         140.0959  138.1916  164.5978 C.ar    1  UNL1        0.1485
     16 C         139.5477  139.1171  165.6432 C.ar    1  UNL1        0.0884
     17 CL        138.0889  139.4664  165.6451 Cl      1  UNL1       -0.0794
     18 C         138.4012  141.9408  158.2699 C.3     1  UNL1        0.1459
     19 O         137.3846  142.6266  157.4061 O.3     1  UNL1       -0.3813
     20 H         137.4809  143.5877  157.4943 H       1  UNL1        0.2105
     21 C         139.3577  142.7533  159.0916 C.3     1  UNL1        0.1204
     22 N         138.8958  143.3898  160.3689 N.am    1  UNL1       -0.2987
     23 C         139.5057  142.9773  161.6757 C.2     1  UNL1        0.2457
     24 O         140.5774  141.9283  161.7053 O.2     1  UNL1       -0.2704
     25 H         138.1924  144.0783  160.3495 H       1  UNL1        0.1498
     26 C         139.0439  143.6139  162.9530 C.2     1  UNL1        0.0842
     27 C         137.6956  143.4408  163.5872 C.2     1  UNL1        0.1242
     28 N         137.6676  144.2552  164.8465 N.2     1  UNL1       -0.1507
     29 N         138.9986  144.9316  164.9907 N.2     1  UNL1       -0.1629
     30 C         139.8492  144.5352  163.8205 C.3     1  UNL1        0.2474
     31 C         141.2578  144.9818  163.5630 C.3     1  UNL1        0.4237
     32 F         142.6665  145.4284  163.3055 F       1  UNL1       -0.1675
     33 F         140.7539  146.0170  162.6016 F       1  UNL1       -0.1675
     34 F         141.7618  143.9466  164.5244 F       1  UNL1       -0.1675
@<TRIPOS>BOND
     1     9    10    1
     2    10    11   ar
     3    11    12    1
     4    11    13   ar
     5    13    14   ar
     6    14    15   ar
     7    15     8    1
     8     8     2    1
     9     2     3    1
    10     3     4    1
    11     4     5    1
    12     5     1    1
    13     1    18    1
    14    18    19    1
    15    18    21    1
    16    21    22    1
    17    22    23   am
    18    23    24    2
    19    23    26    1
    20    26    27    2
    21    27    28    1
    22    28    29    2
    23    29    30    1
    24    30    31    1
    25    31    32    1
    26    31    33    1
    27    31    34    1
    28     5     6    1
    29     6     7    1
    30    15    16   ar
    31    16    17    1
    32    16    10   ar
    33     7     2    1
    34    30    26    1
    35    19    20    1
    36    22    25    1
@<TRIPOS>MOLECULE
*****
 34 36 0 0 0
SMALL
GASTEIGER

@<TRIPOS>ATOM
      1 C         137.9391  139.1911  161.3093 C.3     1  UNL1        0.1034
      2 C         138.6499  139.1602  165.7527 C.3     1  UNL1        0.1687
      3 C         138.1745  140.4127  165.0779 C.3     1  UNL1        0.0609
      4 C         137.9375  140.4229  163.5967 C.3     1  UNL1        0.0759
      5 N         138.1760  139.1808  162.7904 N.3     1  UNL1       -0.2704
      6 C         138.6515  137.9284  163.4652 C.3     1  UNL1        0.0759
      7 C         138.8885  137.9180  164.9463 C.3     1  UNL1        0.0609
      8 O         138.8869  139.1499  167.2338 O.3     1  UNL1       -0.4782
      9 C         141.0562  141.8956  171.0750 C.3     1  UNL1        0.0329
     10 C         141.1566  141.2405  169.7294 C.ar    1  UNL1        0.0023
     11 C         142.4419  141.3030  168.9588 C.ar    1  UNL1        0.0547
     12 CL        143.6270  142.0208  169.5338 Cl      1  UNL1       -0.0825
     13 C         142.5423  140.6479  167.6131 C.ar    1  UNL1        0.0142
     14 C         141.3573  139.9302  167.0381 C.ar    1  UNL1        0.0386
     15 C         140.0720  139.8676  167.8088 C.ar    1  UNL1        0.1485
     16 C         139.9716  140.5228  169.1544 C.ar    1  UNL1        0.0884
     17 CL        138.6862  140.4602  169.9250 Cl      1  UNL1       -0.0794
     18 C         139.0986  139.3086  160.3650 C.3     1  UNL1        0.1459
     19 O         138.8706  139.2336  158.8844 O.3     1  UNL1       -0.3813
     20 H         139.7181  139.3265  158.4217 H       1  UNL1        0.2105
     21 C         140.4862  139.5009  160.9015 C.3     1  UNL1        0.1204
     22 N         141.0282  140.8854  161.1003 N.am    1  UNL1       -0.2987
     23 C         141.5457  141.3023  162.4450 C.2     1  UNL1        0.2457
     24 O         141.5212  140.3347  163.5909 O.2     1  UNL1       -0.2704
     25 H         141.0442  141.5204  160.3482 H       1  UNL1        0.1498
     26 C         142.0876  142.6867  162.6439 C.2     1  UNL1        0.0842
     27 C         143.0421  143.3993  161.7321 C.2     1  UNL1        0.1242
     28 N         143.3147  144.7547  162.3141 N.2     1  UNL1       -0.1507
     29 N         142.5286  144.8798  163.5855 N.2     1  UNL1       -0.1629
     30 C         141.7703  143.6017  163.7893 C.3     1  UNL1        0.2474
     31 C         140.8553  143.2929  164.9371 C.3     1  UNL1        0.4237
     32 F         139.9403  142.9841  166.0849 F       1  UNL1       -0.1675
     33 F         139.6668  143.5156  164.0496 F       1  UNL1       -0.1675
     34 F         142.0438  143.0702  165.8247 F       1  UNL1       -0.1675
@<TRIPOS>BOND
     1     9    10    1
     2    10    11   ar
     3    11    12    1
     4    11    13   ar
     5    13    14   ar
     6    14    15   ar
     7    15     8    1
     8     8     2    1
     9     2     3    1
    10     3     4    1
    11     4     5    1
    12     5     1    1
    13     1    18    1
    14    18    19    1
    15    18    21    1
    16    21    22    1
    17    22    23   am
    18    23    24    2
    19    23    26    1
    20    26    27    2
    21    27    28    1
    22    28    29    2
    23    29    30    1
    24    30    31    1
    25    31    32    1
    26    31    33    1
    27    31    34    1
    28     5     6    1
    29     6     7    1
    30    15    16   ar
    31    16    17    1
    32    16    10   ar
    33     7     2    1
    34    30    26    1
    35    19    20    1
    36    22    25    1
@<TRIPOS>MOLECULE
*****
 34 36 0 0 0
SMALL
GASTEIGER

@<TRIPOS>ATOM
      1 C         141.0529  138.5978  158.9187 C.3     1  UNL1        0.1034
      2 C         138.7293  140.1928  162.4268 C.3     1  UNL1        0.1687
      3 C         139.5717  141.1195  161.6014 C.3     1  UNL1        0.0609
      4 C         140.3463  140.5878  160.4320 C.3     1  UNL1        0.0759
      5 N         140.2783  139.1294  160.0881 N.3     1  UNL1       -0.2704
      6 C         139.4359  138.2026  160.9135 C.3     1  UNL1        0.0759
      7 C         138.6614  138.7343  162.0829 C.3     1  UNL1        0.0609
      8 O         137.9547  140.7244  163.5962 O.3     1  UNL1       -0.4782
      9 C         140.6739  142.5731  167.6197 C.3     1  UNL1        0.0329
     10 C         139.8497  141.4841  166.9994 C.ar    1  UNL1        0.0023
     11 C         139.5608  140.2305  167.7707 C.ar    1  UNL1        0.0547
     12 CL        140.0961  140.0658  169.1623 Cl      1  UNL1       -0.0825
     13 C         138.7365  139.1415  167.1505 C.ar    1  UNL1        0.0142
     14 C         138.2012  139.3061  165.7590 C.ar    1  UNL1        0.0386
     15 C         138.4901  140.5597  164.9877 C.ar    1  UNL1        0.1485
     16 C         139.3143  141.6487  165.6080 C.ar    1  UNL1        0.0884
     17 CL        139.6032  142.9024  164.8366 Cl      1  UNL1       -0.0794
     18 C         142.5198  138.3163  159.0562 C.3     1  UNL1        0.1459
     19 O         143.3993  138.3095  157.8412 O.3     1  UNL1       -0.3813
     20 H         144.3120  138.1123  158.1038 H       1  UNL1        0.2105
     21 C         143.1072  138.0418  160.4089 C.3     1  UNL1        0.1204
     22 N         143.2900  139.1627  161.3888 N.am    1  UNL1       -0.2987
     23 C         142.7602  139.0313  162.7859 C.2     1  UNL1        0.2457
     24 O         142.0477  137.7791  163.2032 O.2     1  UNL1       -0.2704
     25 H         143.7576  139.9846  161.1149 H       1  UNL1        0.1498
     26 C         142.9430  140.1522  163.7658 C.2     1  UNL1        0.0842
     27 C         142.7412  141.6116  163.4837 C.2     1  UNL1        0.1242
     28 N         143.0331  142.3719  164.7434 N.2     1  UNL1       -0.1507
     29 N         143.4153  141.3824  165.8040 N.2     1  UNL1       -0.1629
     30 C         143.3596  140.0106  165.1998 C.3     1  UNL1        0.2474
     31 C         143.6665  138.7232  165.9057 C.3     1  UNL1        0.4237
     32 F         143.9734  137.4358  166.6117 F       1  UNL1       -0.1675
     33 F         145.0469  138.7306  165.3190 F       1  UNL1       -0.1675
     34 F         142.2861  138.7158  166.4925 F       1  UNL1       -0.1675
@<TRIPOS>BOND
     1     9    10    1
     2    10    11   ar
     3    11    12    1
     4    11    13   ar
     5    13    14   ar
     6    14    15   ar
     7    15     8    1
     8     8     2    1
     9     2     3    1
    10     3     4    1
    11     4     5    1
    12     5     1    1
    13     1    18    1
    14    18    19    1
    15    18    21    1
    16    21    22    1
    17    22    23   am
    18    23    24    2
    19    23    26    1
    20    26    27    2
    21    27    28    1
    22    28    29    2
    23    29    30    1
    24    30    31    1
    25    31    32    1
    26    31    33    1
    27    31    34    1
    28     5     6    1
    29     6     7    1
    30    15    16   ar
    31    16    17    1
    32    16    10   ar
    33     7     2    1
    34    30    26    1
    35    19    20    1
    36    22    25    1
