@<TRIPOS>MOLECULE
*****
 26 28 0 0 0
SMALL
GASTEIGER

@<TRIPOS>ATOM
      1 C         142.5591  140.7565  167.0530 C.ar    1  UNL1        0.0890
      2 C         142.9530  139.3473  167.3835 C.ar    1  UNL1        0.0560
      3 S         143.2060  138.6225  166.0949 S.2     1  UNL1       -0.0659
      4 C         142.9686  139.5836  164.9680 C.ar    1  UNL1        0.1107
      5 N         142.5688  140.9025  165.5602 N.ar    1  UNL1       -0.2383
      6 N         137.9517  139.8163  170.4162 N.pl3   1  UNL1       -0.3394
      7 C         139.0749  140.7376  170.0428 C.2     1  UNL1        0.1490
      8 N         139.3604  142.0749  170.6594 N.am    1  UNL1       -0.1545
      9 C         140.5718  142.6473  169.9848 C.2     1  UNL1        0.2766
     10 O         141.2082  143.9708  170.2901 O.2     1  UNL1       -0.2674
     11 C         141.0349  141.6637  168.9514 C.2     1  UNL1        0.0887
     12 C         142.2159  141.8310  168.0418 C.2     1  UNL1        0.0308
     13 S         140.1098  140.4835  168.9872 S.3     1  UNL1       -0.0513
     14 H         137.3198  140.0730  171.1262 H       1  UNL1        0.1440
     15 H         137.8464  138.9549  169.9514 H       1  UNL1        0.1440
     16 C         143.1067  139.2792  163.5056 C.ar    1  UNL1        0.0240
     17 C         142.3465  138.1354  162.9026 C.ar    1  UNL1        0.0051
     18 C         142.4846  137.8312  161.4403 C.ar    1  UNL1        0.0372
     19 C         143.3829  138.6707  160.5811 C.ar    1  UNL1        0.1468
     20 C         144.1431  139.8145  161.1842 C.ar    1  UNL1        0.0372
     21 C         144.0050  140.1188  162.6465 C.ar    1  UNL1        0.0051
     22 O         143.5210  138.3664  159.1187 O.3     1  UNL1       -0.4045
     23 C         142.3142  137.9808  158.3157 C.3     1  UNL1        0.5753
     24 F         141.1074  137.5951  157.5126 F       1  UNL1       -0.1328
     25 F         142.9135  136.6289  158.0643 F       1  UNL1       -0.1328
     26 F         141.7150  139.3327  158.5671 F       1  UNL1       -0.1328
@<TRIPOS>BOND
     1     6     7    1
     2     7     8    2
     3     8     9    1
     4     9    10    2
     5     9    11    1
     6    11    12    2
     7    12     1    1
     8     1     2   ar
     9     2     3   ar
    10     3     4   ar
    11     4    16    1
    12    16    17   ar
    13    17    18   ar
    14    18    19   ar
    15    19    22    1
    16    22    23    1
    17    23    24    1
    18    23    25    1
    19    23    26    1
    20    19    20   ar
    21    20    21   ar
    22     4     5   ar
    23    11    13    1
    24    13     7    1
    25     5     1   ar
    26    21    16   ar
    27     6    14    1
    28     6    15    1
@<TRIPOS>MOLECULE
*****
 26 28 0 0 0
SMALL
GASTEIGER

@<TRIPOS>ATOM
      1 C         141.7757  140.2279  167.0358 C.ar    1  UNL1        0.0890
      2 C         142.8409  139.3426  166.4597 C.ar    1  UNL1        0.0560
      3 S         143.2040  139.8754  165.1053 S.2     1  UNL1       -0.0659
      4 C         142.3634  141.0899  164.8443 C.ar    1  UNL1        0.1107
      5 N         141.4806  141.3078  166.0374 N.ar    1  UNL1       -0.2383
      6 N         143.3512  143.9437  171.1751 N.pl3   1  UNL1       -0.3394
      7 C         142.5001  142.7704  170.7895 C.2     1  UNL1        0.1490
      8 N         141.5393  142.0458  171.6850 N.am    1  UNL1       -0.1545
      9 C         140.9057  140.9432  170.8895 C.2     1  UNL1        0.2766
     10 O         139.8826  139.9686  171.3928 O.2     1  UNL1       -0.2674
     11 C         141.4748  140.9863  169.5024 C.2     1  UNL1        0.0887
     12 C         141.1208  140.0624  168.3750 C.2     1  UNL1        0.0308
     13 S         142.4602  142.1156  169.4405 S.3     1  UNL1       -0.0513
     14 H         143.3070  144.3043  172.0902 H       1  UNL1        0.1440
     15 H         143.9540  144.3533  170.5132 H       1  UNL1        0.1440
     16 C         142.3991  141.9378  163.6074 C.ar    1  UNL1        0.0240
     17 C         143.4198  143.0290  163.4753 C.ar    1  UNL1        0.0051
     18 C         143.4555  143.8768  162.2385 C.ar    1  UNL1        0.0372
     19 C         142.4705  143.6334  161.1336 C.ar    1  UNL1        0.1468
     20 C         141.4499  142.5422  161.2657 C.ar    1  UNL1        0.0372
     21 C         141.4142  141.6944  162.5026 C.ar    1  UNL1        0.0051
     22 O         142.5063  144.4813  159.8967 O.3     1  UNL1       -0.4045
     23 C         141.2278  144.9867  159.2967 C.3     1  UNL1        0.5753
     24 F         139.9493  145.4921  158.6966 F       1  UNL1       -0.1328
     25 F         141.5116  144.2151  158.0421 F       1  UNL1       -0.1328
     26 F         140.9440  145.7583  160.5513 F       1  UNL1       -0.1328
@<TRIPOS>BOND
     1     6     7    1
     2     7     8    2
     3     8     9    1
     4     9    10    2
     5     9    11    1
     6    11    12    2
     7    12     1    1
     8     1     2   ar
     9     2     3   ar
    10     3     4   ar
    11     4    16    1
    12    16    17   ar
    13    17    18   ar
    14    18    19   ar
    15    19    22    1
    16    22    23    1
    17    23    24    1
    18    23    25    1
    19    23    26    1
    20    19    20   ar
    21    20    21   ar
    22     4     5   ar
    23    11    13    1
    24    13     7    1
    25     5     1   ar
    26    21    16   ar
    27     6    14    1
    28     6    15    1
@<TRIPOS>MOLECULE
*****
 26 28 0 0 0
SMALL
GASTEIGER

@<TRIPOS>ATOM
      1 C         139.5977  140.1527  167.4164 C.ar    1  UNL1        0.0890
      2 C         138.5446  139.1545  167.0359 C.ar    1  UNL1        0.0560
      3 S         138.9606  138.5105  165.7467 S.2     1  UNL1       -0.0659
      4 C         140.2707  139.1105  165.3303 C.ar    1  UNL1        0.1107
      5 N         140.6645  140.1254  166.3623 N.ar    1  UNL1       -0.2383
      6 N         143.8749  139.3520  171.2227 N.pl3   1  UNL1       -0.3394
      7 C         142.6324  140.1107  170.8613 C.2     1  UNL1        0.1490
      8 N         141.9983  141.2017  171.6723 N.am    1  UNL1       -0.1545
      9 C         140.7799  141.6769  170.9377 C.2     1  UNL1        0.2766
     10 O         139.8446  142.7593  171.3888 O.2     1  UNL1       -0.2674
     11 C         140.6610  140.8797  169.6727 C.2     1  UNL1        0.0887
     12 C         139.5860  141.0249  168.6367 C.2     1  UNL1        0.0308
     13 S         141.8060  139.9117  169.6255 S.3     1  UNL1       -0.0513
     14 H         144.3502  139.5562  172.0604 H       1  UNL1        0.1440
     15 H         144.2151  138.6499  170.6223 H       1  UNL1        0.1440
     16 C         141.0504  138.7576  164.0983 C.ar    1  UNL1        0.0240
     17 C         140.3365  138.2654  162.8744 C.ar    1  UNL1        0.0051
     18 C         141.1161  137.9125  161.6425 C.ar    1  UNL1        0.0372
     19 C         142.6096  138.0518  161.6346 C.ar    1  UNL1        0.1468
     20 C         143.3235  138.5440  162.8585 C.ar    1  UNL1        0.0372
     21 C         142.5439  138.8969  164.0904 C.ar    1  UNL1        0.0051
     22 O         143.3892  137.6989  160.4026 O.3     1  UNL1       -0.4045
     23 C         142.9597  138.2275  159.0662 C.3     1  UNL1        0.5753
     24 F         142.5302  138.7561  157.7297 F       1  UNL1       -0.1328
     25 F         142.8651  136.8254  158.5419 F       1  UNL1       -0.1328
     26 F         143.0543  139.6297  159.5904 F       1  UNL1       -0.1328
@<TRIPOS>BOND
     1     6     7    1
     2     7     8    2
     3     8     9    1
     4     9    10    2
     5     9    11    1
     6    11    12    2
     7    12     1    1
     8     1     2   ar
     9     2     3   ar
    10     3     4   ar
    11     4    16    1
    12    16    17   ar
    13    17    18   ar
    14    18    19   ar
    15    19    22    1
    16    22    23    1
    17    23    24    1
    18    23    25    1
    19    23    26    1
    20    19    20   ar
    21    20    21   ar
    22     4     5   ar
    23    11    13    1
    24    13     7    1
    25     5     1   ar
    26    21    16   ar
    27     6    14    1
    28     6    15    1
@<TRIPOS>MOLECULE
*****
 26 28 0 0 0
SMALL
GASTEIGER

@<TRIPOS>ATOM
      1 C         140.3213  140.2221  166.5353 C.ar    1  UNL1        0.0890
      2 C         141.2763  139.2847  165.8575 C.ar    1  UNL1        0.0560
      3 S         141.7554  139.9422  164.5973 S.2     1  UNL1       -0.0659
      4 C         141.0965  141.2860  164.4962 C.ar    1  UNL1        0.1107
      5 N         140.2102  141.4590  165.6939 N.ar    1  UNL1       -0.2383
      6 N         142.5980  142.6053  171.2852 N.pl3   1  UNL1       -0.3394
      7 C         141.5063  141.7629  170.6947 C.2     1  UNL1        0.1490
      8 N         140.3735  141.1322  171.4490 N.am    1  UNL1       -0.1545
      9 C         139.5228  140.3828  170.4668 C.2     1  UNL1        0.2766
     10 O         138.2829  139.6028  170.7893 O.2     1  UNL1       -0.2674
     11 C         140.1298  140.5504  169.1054 C.2     1  UNL1        0.0887
     12 C         139.6035  139.9674  167.8275 C.2     1  UNL1        0.0308
     13 S         141.3557  141.4034  169.2463 S.3     1  UNL1       -0.0513
     14 H         142.6112  142.7865  172.2527 H       1  UNL1        0.1440
     15 H         143.3013  142.9770  170.7051 H       1  UNL1        0.1440
     16 C         141.2900  142.2820  163.3913 C.ar    1  UNL1        0.0240
     17 C         141.7113  143.6854  163.7119 C.ar    1  UNL1        0.0051
     18 C         141.9047  144.6813  162.6071 C.ar    1  UNL1        0.0372
     19 C         141.6769  144.2737  161.1816 C.ar    1  UNL1        0.1468
     20 C         141.2556  142.8703  160.8610 C.ar    1  UNL1        0.0372
     21 C         141.0622  141.8744  161.9658 C.ar    1  UNL1        0.0051
     22 O         141.8704  145.2697  160.0767 O.3     1  UNL1       -0.4045
     23 C         140.8519  145.3819  158.9813 C.3     1  UNL1        0.5753
     24 F         139.8333  145.4941  157.8858 F       1  UNL1       -0.1328
     25 F         139.8233  145.8178  159.9822 F       1  UNL1       -0.1328
     26 F         141.8805  144.9459  157.9803 F       1  UNL1       -0.1328
@<TRIPOS>BOND
     1     6     7    1
     2     7     8    2
     3     8     9    1
     4     9    10    2
     5     9    11    1
     6    11    12    2
     7    12     1    1
     8     1     2   ar
     9     2     3   ar
    10     3     4   ar
    11     4    16    1
    12    16    17   ar
    13    17    18   ar
    14    18    19   ar
    15    19    22    1
    16    22    23    1
    17    23    24    1
    18    23    25    1
    19    23    26    1
    20    19    20   ar
    21    20    21   ar
    22     4     5   ar
    23    11    13    1
    24    13     7    1
    25     5     1   ar
    26    21    16   ar
    27     6    14    1
    28     6    15    1
@<TRIPOS>MOLECULE
*****
 26 28 0 0 0
SMALL
GASTEIGER

@<TRIPOS>ATOM
      1 C         138.2797  139.1864  162.3383 C.ar    1  UNL1        0.0890
      2 C         138.6384  137.8234  162.8520 C.ar    1  UNL1        0.0560
      3 S         139.1248  137.9732  164.2630 S.2     1  UNL1       -0.0659
      4 C         139.0667  139.4285  164.6214 C.ar    1  UNL1        0.1107
      5 N         138.5444  140.1783  163.4318 N.ar    1  UNL1       -0.2383
      6 N         142.1198  141.0068  158.4187 N.pl3   1  UNL1       -0.3394
      7 C         140.6900  140.6718  158.7240 C.2     1  UNL1        0.1490
      8 N         139.5397  140.7600  157.7653 N.am    1  UNL1       -0.1545
      9 C         138.2981  140.3324  158.4904 C.2     1  UNL1        0.2766
     10 O         136.9162  140.2685  157.9105 O.2     1  UNL1       -0.2674
     11 C         138.6811  139.9800  159.8972 C.2     1  UNL1        0.0887
     12 C         137.7494  139.5018  160.9711 C.2     1  UNL1        0.0308
     13 S         140.1594  140.1897  160.0416 S.3     1  UNL1       -0.0513
     14 H         142.3714  141.3170  157.5189 H       1  UNL1        0.1440
     15 H         142.8067  140.9164  159.1181 H       1  UNL1        0.1440
     16 C         139.4616  140.0288  165.9381 C.ar    1  UNL1        0.0240
     17 C         138.9505  139.4343  167.2169 C.ar    1  UNL1        0.0051
     18 C         139.3454  140.0346  168.5335 C.ar    1  UNL1        0.0372
     19 C         140.2515  141.2294  168.5715 C.ar    1  UNL1        0.1468
     20 C         140.7626  141.8239  167.2927 C.ar    1  UNL1        0.0372
     21 C         140.3677  141.2237  165.9761 C.ar    1  UNL1        0.0051
     22 O         140.6464  141.8297  169.8882 O.3     1  UNL1       -0.4045
     23 C         140.3908  143.2831  170.1567 C.3     1  UNL1        0.5753
     24 F         140.1352  144.7367  170.4251 F       1  UNL1       -0.1328
     25 F         141.7599  143.6186  169.6439 F       1  UNL1       -0.1328
     26 F         139.0217  142.9477  170.6695 F       1  UNL1       -0.1328
@<TRIPOS>BOND
     1     6     7    1
     2     7     8    2
     3     8     9    1
     4     9    10    2
     5     9    11    1
     6    11    12    2
     7    12     1    1
     8     1     2   ar
     9     2     3   ar
    10     3     4   ar
    11     4    16    1
    12    16    17   ar
    13    17    18   ar
    14    18    19   ar
    15    19    22    1
    16    22    23    1
    17    23    24    1
    18    23    25    1
    19    23    26    1
    20    19    20   ar
    21    20    21   ar
    22     4     5   ar
    23    11    13    1
    24    13     7    1
    25     5     1   ar
    26    21    16   ar
    27     6    14    1
    28     6    15    1
@<TRIPOS>MOLECULE
*****
 26 28 0 0 0
SMALL
GASTEIGER

@<TRIPOS>ATOM
      1 C         142.3179  139.6343  167.3253 C.ar    1  UNL1        0.0890
      2 C         143.3216  138.5483  167.0739 C.ar    1  UNL1        0.0560
      3 S         143.9912  138.8307  165.7616 S.2     1  UNL1       -0.0659
      4 C         143.4013  140.0912  165.2021 C.ar    1  UNL1        0.1107
      5 N         142.3671  140.5878  166.1684 N.ar    1  UNL1       -0.2383
      6 N         143.5052  143.8788  171.0667 N.pl3   1  UNL1       -0.3394
      7 C         142.6206  142.7210  170.7105 C.2     1  UNL1        0.1490
      8 N         141.4473  142.2305  171.5059 N.am    1  UNL1       -0.1545
      9 C         140.8555  141.0567  170.7834 C.2     1  UNL1        0.2766
     10 O         139.6651  140.2581  171.2252 O.2     1  UNL1       -0.2674
     11 C         141.6631  140.8217  169.5414 C.2     1  UNL1        0.0887
     12 C         141.4222  139.7469  168.5232 C.2     1  UNL1        0.0308
     13 S         142.7541  141.8503  169.4964 S.3     1  UNL1       -0.0513
     14 H         143.3365  144.3923  171.8896 H       1  UNL1        0.1440
     15 H         144.2546  144.1252  170.4777 H       1  UNL1        0.1440
     16 C         143.7791  140.7410  163.9039 C.ar    1  UNL1        0.0240
     17 C         143.4602  140.0625  162.6048 C.ar    1  UNL1        0.0051
     18 C         143.8381  140.7123  161.3068 C.ar    1  UNL1        0.0372
     19 C         144.5349  142.0406  161.3079 C.ar    1  UNL1        0.1468
     20 C         144.8538  142.7191  162.6071 C.ar    1  UNL1        0.0372
     21 C         144.4759  142.0693  163.9051 C.ar    1  UNL1        0.0051
     22 O         144.9128  142.6904  160.0098 O.3     1  UNL1       -0.4045
     23 C         143.8886  142.8522  158.9259 C.3     1  UNL1        0.5753
     24 F         142.8643  143.0139  157.8420 F       1  UNL1       -0.1328
     25 F         144.7644  142.0814  157.9833 F       1  UNL1       -0.1328
     26 F         143.0127  143.6229  159.8686 F       1  UNL1       -0.1328
@<TRIPOS>BOND
     1     6     7    1
     2     7     8    2
     3     8     9    1
     4     9    10    2
     5     9    11    1
     6    11    12    2
     7    12     1    1
     8     1     2   ar
     9     2     3   ar
    10     3     4   ar
    11     4    16    1
    12    16    17   ar
    13    17    18   ar
    14    18    19   ar
    15    19    22    1
    16    22    23    1
    17    23    24    1
    18    23    25    1
    19    23    26    1
    20    19    20   ar
    21    20    21   ar
    22     4     5   ar
    23    11    13    1
    24    13     7    1
    25     5     1   ar
    26    21    16   ar
    27     6    14    1
    28     6    15    1
@<TRIPOS>MOLECULE
*****
 26 28 0 0 0
SMALL
GASTEIGER

@<TRIPOS>ATOM
      1 C         139.0476  142.5182  161.5301 C.ar    1  UNL1        0.0890
      2 C         138.1757  141.3281  161.2593 C.ar    1  UNL1        0.0560
      3 S         138.0469  140.5481  162.5341 S.2     1  UNL1       -0.0659
      4 C         138.8392  141.2562  163.5928 C.ar    1  UNL1        0.1107
      5 N         139.4576  142.4738  162.9723 N.ar    1  UNL1       -0.2383
      6 N         144.4684  142.3048  159.5319 N.pl3   1  UNL1       -0.3394
      7 C         143.1403  143.0016  159.5065 C.2     1  UNL1        0.1490
      8 N         142.7922  144.2061  158.6832 N.am    1  UNL1       -0.1545
      9 C         141.3639  144.5651  158.9678 C.2     1  UNL1        0.2766
     10 O         140.6036  145.7064  158.3600 O.2     1  UNL1       -0.2674
     11 C         140.8292  143.5824  159.9670 C.2     1  UNL1        0.0887
     12 C         139.4405  143.5684  160.5338 C.2     1  UNL1        0.0308
     13 S         141.9272  142.6160  160.3000 S.3     1  UNL1       -0.0513
     14 H         145.2082  142.6348  158.9723 H       1  UNL1        0.1440
     15 H         144.6004  141.5176  160.1082 H       1  UNL1        0.1440
     16 C         138.9870  140.8228  165.0212 C.ar    1  UNL1        0.0240
     17 C         138.2255  139.6335  165.5268 C.ar    1  UNL1        0.0051
     18 C         138.3734  139.2002  166.9552 C.ar    1  UNL1        0.0372
     19 C         139.2828  139.9561  167.8780 C.ar    1  UNL1        0.1468
     20 C         140.0443  141.1454  167.3724 C.ar    1  UNL1        0.0372
     21 C         139.8964  141.5787  165.9440 C.ar    1  UNL1        0.0051
     22 O         139.4307  139.5227  169.3064 O.3     1  UNL1       -0.4045
     23 C         140.0111  140.4643  170.3196 C.3     1  UNL1        0.5753
     24 F         140.5914  141.4059  171.3329 F       1  UNL1       -0.1328
     25 F         138.7690  141.3026  170.2520 F       1  UNL1       -0.1328
     26 F         141.2531  139.6260  170.3872 F       1  UNL1       -0.1328
@<TRIPOS>BOND
     1     6     7    1
     2     7     8    2
     3     8     9    1
     4     9    10    2
     5     9    11    1
     6    11    12    2
     7    12     1    1
     8     1     2   ar
     9     2     3   ar
    10     3     4   ar
    11     4    16    1
    12    16    17   ar
    13    17    18   ar
    14    18    19   ar
    15    19    22    1
    16    22    23    1
    17    23    24    1
    18    23    25    1
    19    23    26    1
    20    19    20   ar
    21    20    21   ar
    22     4     5   ar
    23    11    13    1
    24    13     7    1
    25     5     1   ar
    26    21    16   ar
    27     6    14    1
    28     6    15    1
@<TRIPOS>MOLECULE
*****
 26 28 0 0 0
SMALL
GASTEIGER

@<TRIPOS>ATOM
      1 C         142.7112  141.8187  166.1435 C.ar    1  UNL1        0.0890
      2 C         143.0765  142.3520  167.4971 C.ar    1  UNL1        0.0560
      3 S         142.0459  141.8745  168.4769 S.2     1  UNL1       -0.0659
      4 C         141.0438  141.0462  167.7289 C.ar    1  UNL1        0.1107
      5 N         141.4550  141.0117  166.2867 N.ar    1  UNL1       -0.2383
      6 N         140.7900  146.0590  162.7152 N.pl3   1  UNL1       -0.3394
      7 C         141.8033  144.9751  162.9354 C.2     1  UNL1        0.1490
      8 N         142.9293  144.6196  162.0103 N.am    1  UNL1       -0.1545
      9 C         143.6904  143.4812  162.6225 C.2     1  UNL1        0.2766
     10 O         144.8955  142.8090  162.0345 O.2     1  UNL1       -0.2674
     11 C         143.0348  143.1331  163.9259 C.2     1  UNL1        0.0887
     12 C         143.4692  142.0516  164.8702 C.2     1  UNL1        0.0308
     13 S         141.8685  144.0564  164.1193 S.3     1  UNL1       -0.0513
     14 H         140.8302  146.6125  161.9021 H       1  UNL1        0.1440
     15 H         140.0849  146.2168  163.3838 H       1  UNL1        0.1440
     16 C         139.8415  140.3708  168.3193 C.ar    1  UNL1        0.0240
     17 C         139.5214  140.5467  169.7741 C.ar    1  UNL1        0.0051
     18 C         138.3192  139.8714  170.3644 C.ar    1  UNL1        0.0372
     19 C         137.4371  139.0202  169.5000 C.ar    1  UNL1        0.1468
     20 C         137.7572  138.8443  168.0451 C.ar    1  UNL1        0.0372
     21 C         138.9594  139.5196  167.4548 C.ar    1  UNL1        0.0051
     22 O         136.2348  138.3448  170.0904 O.3     1  UNL1       -0.4045
     23 C         136.0632  138.2862  171.5793 C.3     1  UNL1        0.5753
     24 F         135.8916  138.2275  173.0684 F       1  UNL1       -0.1328
     25 F         136.4921  136.8488  171.5722 F       1  UNL1       -0.1328
     26 F         135.6343  139.7235  171.5865 F       1  UNL1       -0.1328
@<TRIPOS>BOND
     1     6     7    1
     2     7     8    2
     3     8     9    1
     4     9    10    2
     5     9    11    1
     6    11    12    2
     7    12     1    1
     8     1     2   ar
     9     2     3   ar
    10     3     4   ar
    11     4    16    1
    12    16    17   ar
    13    17    18   ar
    14    18    19   ar
    15    19    22    1
    16    22    23    1
    17    23    24    1
    18    23    25    1
    19    23    26    1
    20    19    20   ar
    21    20    21   ar
    22     4     5   ar
    23    11    13    1
    24    13     7    1
    25     5     1   ar
    26    21    16   ar
    27     6    14    1
    28     6    15    1
@<TRIPOS>MOLECULE
*****
 26 28 0 0 0
SMALL
GASTEIGER

@<TRIPOS>ATOM
      1 C         140.0472  140.0063  167.0827 C.ar    1  UNL1        0.0890
      2 C         138.7956  139.1992  166.9026 C.ar    1  UNL1        0.0560
      3 S         138.2167  139.5349  165.5602 S.2     1  UNL1       -0.0659
      4 C         139.1105  140.5493  164.9105 C.ar    1  UNL1        0.1107
      5 N         140.2418  140.8406  165.8515 N.ar    1  UNL1       -0.2383
      6 N         140.1927  144.7990  170.3126 N.pl3   1  UNL1       -0.3394
      7 C         140.6943  143.4006  170.1057 C.2     1  UNL1        0.1490
      8 N         141.6779  142.6786  170.9782 N.am    1  UNL1       -0.1545
      9 C         141.8920  141.3105  170.4017 C.2     1  UNL1        0.2766
     10 O         142.7982  140.2518  170.9566 O.2     1  UNL1       -0.2674
     11 C         141.0407  141.1869  169.1729 C.2     1  UNL1        0.0887
     12 C         140.9462  139.9830  168.2832 C.2     1  UNL1        0.0308
     13 S         140.3005  142.4787  168.9899 S.3     1  UNL1       -0.0513
     14 H         140.5119  145.3281  171.0789 H       1  UNL1        0.1440
     15 H         139.5442  145.1877  169.6820 H       1  UNL1        0.1440
     16 C         138.9085  141.1644  163.5574 C.ar    1  UNL1        0.0240
     17 C         138.0598  142.3925  163.4109 C.ar    1  UNL1        0.0051
     18 C         137.8578  143.0076  162.0578 C.ar    1  UNL1        0.0372
     19 C         138.5046  142.3946  160.8512 C.ar    1  UNL1        0.1468
     20 C         139.3534  141.1666  160.9977 C.ar    1  UNL1        0.0372
     21 C         139.5553  140.5515  162.3507 C.ar    1  UNL1        0.0051
     22 O         138.3026  143.0097  159.4981 O.3     1  UNL1       -0.4045
     23 C         139.4888  143.4003  158.6672 C.3     1  UNL1        0.5753
     24 F         140.6750  143.7909  157.8362 F       1  UNL1       -0.1328
     25 F         139.9056  144.3808  159.7230 F       1  UNL1       -0.1328
     26 F         139.0720  142.4198  157.6113 F       1  UNL1       -0.1328
@<TRIPOS>BOND
     1     6     7    1
     2     7     8    2
     3     8     9    1
     4     9    10    2
     5     9    11    1
     6    11    12    2
     7    12     1    1
     8     1     2   ar
     9     2     3   ar
    10     3     4   ar
    11     4    16    1
    12    16    17   ar
    13    17    18   ar
    14    18    19   ar
    15    19    22    1
    16    22    23    1
    17    23    24    1
    18    23    25    1
    19    23    26    1
    20    19    20   ar
    21    20    21   ar
    22     4     5   ar
    23    11    13    1
    24    13     7    1
    25     5     1   ar
    26    21    16   ar
    27     6    14    1
    28     6    15    1
