@<TRIPOS>MOLECULE
*****
 32 36 0 0 0
SMALL
GASTEIGER

@<TRIPOS>ATOM
      1 O         140.9525  136.9712  162.8705 O.2     1  UNL1       -0.2668
      2 C         140.4390  138.3564  163.1302 C.2     1  UNL1        0.2806
      3 N         140.3119  139.3335  161.9993 N.am    1  UNL1       -0.2999
      4 H         139.9749  140.2427  162.1698 H       1  UNL1        0.1498
      5 C         140.0525  138.7645  164.5210 C.ar    1  UNL1        0.2014
      6 C         138.7662  138.2738  165.1165 C.ar    1  UNL1        0.0843
      7 C         138.3798  138.6819  166.5072 C.ar    1  UNL1        0.2018
      8 O         137.0935  138.1911  167.1027 O.2     1  UNL1       -0.2864
      9 C         139.2796  139.5808  167.3024 C.ar    1  UNL1        0.0737
     10 C         138.8931  139.9889  168.6931 C.ar    1  UNL1        0.0085
     11 C         139.7929  140.8877  169.4883 C.ar    1  UNL1        0.0299
     12 C         141.0792  141.3785  168.8928 C.ar    1  UNL1        0.1432
     13 F         141.9791  142.2773  169.6881 F       1  UNL1       -0.2041
     14 C         141.4657  140.9704  167.5021 C.ar    1  UNL1        0.0672
     15 C         140.5659  140.0715  166.7069 C.ar    1  UNL1        0.1508
     16 O         140.9523  139.6634  165.3162 O.2     1  UNL1       -0.4486
     17 C         140.6984  138.9255  160.6086 C.3     1  UNL1        0.0747
     18 C         139.6390  138.5474  159.6162 C.3     1  UNL1        0.0369
     19 C         140.0254  138.1393  158.2255 C.3     1  UNL1        0.0741
     20 N         141.4713  138.1093  157.8271 N.3     1  UNL1       -0.2691
     21 C         142.5306  138.4874  158.8194 C.3     1  UNL1        0.0741
     22 C         142.1442  138.8955  160.2102 C.3     1  UNL1        0.0369
     23 C         141.8577  137.7012  156.4364 C.3     1  UNL1        0.0952
     24 C         142.3842  136.3205  156.1789 C.2     1  UNL1       -0.0223
     25 C         142.1316  135.6557  154.8582 C.2     1  UNL1       -0.0067
     26 C         142.6581  134.2749  154.6007 C.2     1  UNL1        0.0006
     27 C         143.4372  133.5590  155.6639 C.2     1  UNL1        0.0154
     28 C         144.0760  132.2022  155.6982 C.2     1  UNL1        0.0218
     29 C         144.7234  132.0285  157.0401 C.2     1  UNL1        0.0985
     30 N         144.4847  133.2779  157.8352 N.2     1  UNL1       -0.2478
     31 C         143.6898  134.2237  156.9846 C.2     1  UNL1        0.0631
     32 C         143.1633  135.6045  157.2421 C.3     1  UNL1        0.0691
@<TRIPOS>BOND
     1     1     2    2
     2     2     3   am
     3     3    17    1
     4    17    18    1
     5    18    19    1
     6    19    20    1
     7    20    23    1
     8    23    24    1
     9    24    25    2
    10    25    26    1
    11    26    27    2
    12    27    28    1
    13    28    29    2
    14    29    30    1
    15    30    31    2
    16    31    32    1
    17    20    21    1
    18    21    22    1
    19     2     5    1
    20     5     6   ar
    21     6     7   ar
    22     7     8    2
    23     7     9   ar
    24     9    10   ar
    25    10    11   ar
    26    11    12   ar
    27    12    13    1
    28    12    14   ar
    29    14    15   ar
    30    15    16   ar
    31    22    17    1
    32    16     5   ar
    33    32    24    1
    34    15     9   ar
    35    31    27    1
    36     3     4    1
@<TRIPOS>MOLECULE
*****
 32 36 0 0 0
SMALL
GASTEIGER

@<TRIPOS>ATOM
      1 O         139.5243  146.1908  160.9650 O.2     1  UNL1       -0.2668
      2 C         140.1196  144.8533  161.2914 C.2     1  UNL1        0.2806
      3 N         140.6800  143.9944  160.1968 N.am    1  UNL1       -0.2999
      4 H         141.0707  143.1165  160.4111 H       1  UNL1        0.1498
      5 C         140.1544  144.3746  162.7126 C.ar    1  UNL1        0.2014
      6 C         139.2460  144.9918  163.7344 C.ar    1  UNL1        0.0843
      7 C         139.2808  144.5131  165.1555 C.ar    1  UNL1        0.2018
      8 O         138.3725  145.1303  166.1773 O.2     1  UNL1       -0.2864
      9 C         140.2240  143.4172  165.5549 C.ar    1  UNL1        0.0737
     10 C         140.2588  142.9385  166.9760 C.ar    1  UNL1        0.0085
     11 C         141.2019  141.8426  167.3754 C.ar    1  UNL1        0.0299
     12 C         142.1102  141.2254  166.3536 C.ar    1  UNL1        0.1432
     13 F         143.0533  140.1294  166.7531 F       1  UNL1       -0.2041
     14 C         142.0754  141.7041  164.9325 C.ar    1  UNL1        0.0672
     15 C         141.1323  142.7999  164.5332 C.ar    1  UNL1        0.1508
     16 O         141.0975  143.2787  163.1120 O.2     1  UNL1       -0.4486
     17 C         140.6452  144.4731  158.7757 C.3     1  UNL1        0.0747
     18 C         141.7059  145.4068  158.2726 C.3     1  UNL1        0.0369
     19 C         141.6711  145.8855  156.8515 C.3     1  UNL1        0.0741
     20 N         140.5756  145.4304  155.9334 N.3     1  UNL1       -0.2691
     21 C         139.5149  144.4967  156.4365 C.3     1  UNL1        0.0741
     22 C         139.5497  144.0180  157.8577 C.3     1  UNL1        0.0369
     23 C         140.5408  145.9091  154.5122 C.3     1  UNL1        0.0952
     24 C         140.2489  147.3497  154.2130 C.2     1  UNL1       -0.0223
     25 C         140.7383  147.9643  152.9352 C.2     1  UNL1       -0.0067
     26 C         140.4465  149.4049  152.6360 C.2     1  UNL1        0.0006
     27 C         139.6653  150.2308  153.6144 C.2     1  UNL1        0.0154
     28 C         139.2273  151.6653  153.5926 C.2     1  UNL1        0.0218
     29 C         138.4672  151.9372  154.8569 C.2     1  UNL1        0.0985
     30 N         138.4355  150.6708  155.6601 N.2     1  UNL1       -0.2478
     31 C         139.1759  149.6162  154.8922 C.2     1  UNL1        0.0631
     32 C         139.4677  148.1756  155.1915 C.3     1  UNL1        0.0691
@<TRIPOS>BOND
     1     1     2    2
     2     2     3   am
     3     3    17    1
     4    17    18    1
     5    18    19    1
     6    19    20    1
     7    20    23    1
     8    23    24    1
     9    24    25    2
    10    25    26    1
    11    26    27    2
    12    27    28    1
    13    28    29    2
    14    29    30    1
    15    30    31    2
    16    31    32    1
    17    20    21    1
    18    21    22    1
    19     2     5    1
    20     5     6   ar
    21     6     7   ar
    22     7     8    2
    23     7     9   ar
    24     9    10   ar
    25    10    11   ar
    26    11    12   ar
    27    12    13    1
    28    12    14   ar
    29    14    15   ar
    30    15    16   ar
    31    22    17    1
    32    16     5   ar
    33    32    24    1
    34    15     9   ar
    35    31    27    1
    36     3     4    1
@<TRIPOS>MOLECULE
*****
 32 36 0 0 0
SMALL
GASTEIGER

@<TRIPOS>ATOM
      1 O         143.7848  139.2035  159.1173 O.2     1  UNL1       -0.2668
      2 C         142.7938  138.0836  159.2348 C.2     1  UNL1        0.2806
      3 N         142.1312  137.8034  160.5510 N.am    1  UNL1       -0.2999
      4 H         141.4808  137.0684  160.6281 H       1  UNL1        0.1498
      5 C         142.4654  137.2439  158.0360 C.ar    1  UNL1        0.2014
      6 C         141.3929  137.6831  157.0837 C.ar    1  UNL1        0.0843
      7 C         141.0644  136.8434  155.8850 C.ar    1  UNL1        0.2018
      8 O         139.9919  137.2826  154.9327 O.2     1  UNL1       -0.2864
      9 C         141.8085  135.5645  155.6384 C.ar    1  UNL1        0.0737
     10 C         141.4800  134.7248  154.4397 C.ar    1  UNL1        0.0085
     11 C         142.2241  133.4460  154.1932 C.ar    1  UNL1        0.0299
     12 C         143.2967  133.0068  155.1455 C.ar    1  UNL1        0.1432
     13 F         144.0408  131.7278  154.8989 F       1  UNL1       -0.2041
     14 C         143.6251  133.8464  156.3442 C.ar    1  UNL1        0.0672
     15 C         142.8810  135.1253  156.5907 C.ar    1  UNL1        0.1508
     16 O         143.2095  135.9650  157.7895 O.2     1  UNL1       -0.4486
     17 C         142.4596  138.6431  161.7498 C.3     1  UNL1        0.0747
     18 C         141.5337  139.7462  162.1693 C.3     1  UNL1        0.0369
     19 C         141.8621  140.5858  163.3680 C.3     1  UNL1        0.0741
     20 N         143.1164  140.3225  164.1474 N.3     1  UNL1       -0.2691
     21 C         144.0423  139.2194  163.7279 C.3     1  UNL1        0.0741
     22 C         143.7139  138.3797  162.5291 C.3     1  UNL1        0.0369
     23 C         143.4448  141.1621  165.3461 C.3     1  UNL1        0.0952
     24 C         142.4628  141.2753  166.4743 C.2     1  UNL1       -0.0223
     25 C         141.5209  142.4411  166.5347 C.2     1  UNL1       -0.0067
     26 C         140.5389  142.5543  167.6629 C.2     1  UNL1        0.0006
     27 C         140.4988  141.5017  168.7307 C.2     1  UNL1        0.0154
     28 C         139.6465  141.3461  169.9552 C.2     1  UNL1        0.0218
     29 C         140.0616  140.0841  170.6517 C.2     1  UNL1        0.0985
     30 N         141.1705  139.4597  169.8576 N.2     1  UNL1       -0.2478
     31 C         141.4407  140.3359  168.6704 C.2     1  UNL1        0.0631
     32 C         142.4227  140.2227  167.5422 C.3     1  UNL1        0.0691
@<TRIPOS>BOND
     1     1     2    2
     2     2     3   am
     3     3    17    1
     4    17    18    1
     5    18    19    1
     6    19    20    1
     7    20    23    1
     8    23    24    1
     9    24    25    2
    10    25    26    1
    11    26    27    2
    12    27    28    1
    13    28    29    2
    14    29    30    1
    15    30    31    2
    16    31    32    1
    17    20    21    1
    18    21    22    1
    19     2     5    1
    20     5     6   ar
    21     6     7   ar
    22     7     8    2
    23     7     9   ar
    24     9    10   ar
    25    10    11   ar
    26    11    12   ar
    27    12    13    1
    28    12    14   ar
    29    14    15   ar
    30    15    16   ar
    31    22    17    1
    32    16     5   ar
    33    32    24    1
    34    15     9   ar
    35    31    27    1
    36     3     4    1
@<TRIPOS>MOLECULE
*****
 32 36 0 0 0
SMALL
GASTEIGER

@<TRIPOS>ATOM
      1 O         141.8224  139.0087  160.9698 O.2     1  UNL1       -0.2668
      2 C         140.7188  138.4982  160.0915 C.2     1  UNL1        0.2806
      3 N         139.3552  138.2530  160.6664 N.am    1  UNL1       -0.2999
      4 H         138.6309  137.9180  160.0899 H       1  UNL1        0.1498
      5 C         140.9788  138.2329  158.6381 C.ar    1  UNL1        0.2014
      6 C         142.3757  138.3182  158.0983 C.ar    1  UNL1        0.0843
      7 C         142.6357  138.0530  156.6451 C.ar    1  UNL1        0.2018
      8 O         144.0326  138.1383  156.1053 O.2     1  UNL1       -0.2864
      9 C         141.4988  137.7024  155.7315 C.ar    1  UNL1        0.0737
     10 C         141.7588  137.4371  154.2783 C.ar    1  UNL1        0.0085
     11 C         140.6219  137.0865  153.3648 C.ar    1  UNL1        0.0299
     12 C         139.2250  137.0012  153.9046 C.ar    1  UNL1        0.1432
     13 F         138.0880  136.6506  152.9910 F       1  UNL1       -0.2041
     14 C         138.9650  137.2665  155.3578 C.ar    1  UNL1        0.0672
     15 C         140.1019  137.6170  156.2713 C.ar    1  UNL1        0.1508
     16 O         139.8419  137.8823  157.7246 O.2     1  UNL1       -0.4486
     17 C         139.0952  138.5183  162.1196 C.3     1  UNL1        0.0747
     18 C         138.5029  139.8278  162.5487 C.3     1  UNL1        0.0369
     19 C         138.2428  140.0931  164.0020 C.3     1  UNL1        0.0741
     20 N         138.5752  139.0488  165.0262 N.3     1  UNL1       -0.2691
     21 C         139.1676  137.7392  164.5971 C.3     1  UNL1        0.0741
     22 C         139.4276  137.4740  163.1438 C.3     1  UNL1        0.0369
     23 C         138.3152  139.3140  166.4795 C.3     1  UNL1        0.0952
     24 C         139.4215  139.8148  167.3601 C.2     1  UNL1       -0.0223
     25 C         140.7961  140.0178  166.7954 C.2     1  UNL1       -0.0067
     26 C         141.9024  140.5185  167.6760 C.2     1  UNL1        0.0006
     27 C         141.6339  140.8162  169.1214 C.2     1  UNL1        0.0154
     28 C         142.5187  141.3173  170.2241 C.2     1  UNL1        0.0218
     29 C         141.6908  141.4240  171.4705 C.2     1  UNL1        0.0985
     30 N         140.2944  140.9888  171.1380 N.2     1  UNL1       -0.2478
     31 C         140.2592  140.6132  169.6862 C.2     1  UNL1        0.0631
     32 C         139.1530  140.1125  168.8055 C.3     1  UNL1        0.0691
@<TRIPOS>BOND
     1     1     2    2
     2     2     3   am
     3     3    17    1
     4    17    18    1
     5    18    19    1
     6    19    20    1
     7    20    23    1
     8    23    24    1
     9    24    25    2
    10    25    26    1
    11    26    27    2
    12    27    28    1
    13    28    29    2
    14    29    30    1
    15    30    31    2
    16    31    32    1
    17    20    21    1
    18    21    22    1
    19     2     5    1
    20     5     6   ar
    21     6     7   ar
    22     7     8    2
    23     7     9   ar
    24     9    10   ar
    25    10    11   ar
    26    11    12   ar
    27    12    13    1
    28    12    14   ar
    29    14    15   ar
    30    15    16   ar
    31    22    17    1
    32    16     5   ar
    33    32    24    1
    34    15     9   ar
    35    31    27    1
    36     3     4    1
@<TRIPOS>MOLECULE
*****
 32 36 0 0 0
SMALL
GASTEIGER

@<TRIPOS>ATOM
      1 O         142.9101  139.4629  158.6104 O.2     1  UNL1       -0.2668
      2 C         142.6206  138.0277  158.9364 C.2     1  UNL1        0.2806
      3 N         142.5538  137.5823  160.3672 N.am    1  UNL1       -0.2999
      4 H         142.3638  136.6403  160.5812 H       1  UNL1        0.1498
      5 C         142.3979  137.0378  157.8316 C.ar    1  UNL1        0.2014
      6 C         141.3217  137.2782  156.8148 C.ar    1  UNL1        0.0843
      7 C         141.0990  136.2884  155.7100 C.ar    1  UNL1        0.2018
      8 O         140.0227  136.5288  154.6933 O.2     1  UNL1       -0.2864
      9 C         141.9526  135.0580  155.6220 C.ar    1  UNL1        0.0737
     10 C         141.7299  134.0682  154.5172 C.ar    1  UNL1        0.0085
     11 C         142.5834  132.8379  154.4292 C.ar    1  UNL1        0.0299
     12 C         143.6597  132.5975  155.4460 C.ar    1  UNL1        0.1432
     13 F         144.5133  131.3671  155.3580 F       1  UNL1       -0.2041
     14 C         143.8824  133.5873  156.5508 C.ar    1  UNL1        0.0672
     15 C         143.0288  134.8176  156.6388 C.ar    1  UNL1        0.1508
     16 O         143.2515  135.8075  157.7436 O.2     1  UNL1       -0.4486
     17 C         142.7764  138.5722  161.4720 C.3     1  UNL1        0.0747
     18 C         144.1549  138.7812  162.0252 C.3     1  UNL1        0.0369
     19 C         144.3776  139.7710  163.1300 C.3     1  UNL1        0.0741
     20 N         143.2217  140.5519  163.6817 N.3     1  UNL1       -0.2691
     21 C         141.8432  140.3429  163.1285 C.3     1  UNL1        0.0741
     22 C         141.6205  139.3530  162.0236 C.3     1  UNL1        0.0369
     23 C         143.4443  141.5417  164.7865 C.3     1  UNL1        0.0952
     24 C         143.0974  141.1787  166.1999 C.2     1  UNL1       -0.0223
     25 C         142.9026  139.7404  166.5786 C.2     1  UNL1       -0.0067
     26 C         142.5557  139.3774  167.9921 C.2     1  UNL1        0.0006
     27 C         142.4037  140.4526  169.0268 C.2     1  UNL1        0.0154
     28 C         142.0695  140.3992  170.4882 C.2     1  UNL1        0.0218
     29 C         142.0579  141.8045  171.0126 C.2     1  UNL1        0.0985
     30 N         142.3848  142.7264  169.8755 N.2     1  UNL1       -0.2478
     31 C         142.5985  141.8908  168.6482 C.2     1  UNL1        0.0631
     32 C         142.9454  142.2539  167.2347 C.3     1  UNL1        0.0691
@<TRIPOS>BOND
     1     1     2    2
     2     2     3   am
     3     3    17    1
     4    17    18    1
     5    18    19    1
     6    19    20    1
     7    20    23    1
     8    23    24    1
     9    24    25    2
    10    25    26    1
    11    26    27    2
    12    27    28    1
    13    28    29    2
    14    29    30    1
    15    30    31    2
    16    31    32    1
    17    20    21    1
    18    21    22    1
    19     2     5    1
    20     5     6   ar
    21     6     7   ar
    22     7     8    2
    23     7     9   ar
    24     9    10   ar
    25    10    11   ar
    26    11    12   ar
    27    12    13    1
    28    12    14   ar
    29    14    15   ar
    30    15    16   ar
    31    22    17    1
    32    16     5   ar
    33    32    24    1
    34    15     9   ar
    35    31    27    1
    36     3     4    1
@<TRIPOS>MOLECULE
*****
 32 36 0 0 0
SMALL
GASTEIGER

@<TRIPOS>ATOM
      1 O         139.8853  140.3092  159.5927 O.2     1  UNL1       -0.2668
      2 C         138.4344  140.2545  159.2162 C.2     1  UNL1        0.2806
      3 N         137.4047  139.8992  160.2475 N.am    1  UNL1       -0.2999
      4 H         136.4524  139.8633  160.0003 H       1  UNL1        0.1498
      5 C         138.0130  140.5551  157.8083 C.ar    1  UNL1        0.2014
      6 C         139.0491  140.7887  156.7490 C.ar    1  UNL1        0.0843
      7 C         138.6278  141.0893  155.3412 C.ar    1  UNL1        0.2018
      8 O         139.6639  141.3230  154.2820 O.2     1  UNL1       -0.2864
      9 C         137.1704  141.1563  154.9925 C.ar    1  UNL1        0.0737
     10 C         136.7491  141.4569  153.5846 C.ar    1  UNL1        0.0085
     11 C         135.2918  141.5238  153.2360 C.ar    1  UNL1        0.0299
     12 C         134.2557  141.2902  154.2952 C.ar    1  UNL1        0.1432
     13 F         132.7983  141.3571  153.9465 F       1  UNL1       -0.2041
     14 C         134.6770  140.9896  155.7030 C.ar    1  UNL1        0.0672
     15 C         136.1343  140.9226  156.0517 C.ar    1  UNL1        0.1508
     16 O         136.5557  140.6220  157.4596 O.2     1  UNL1       -0.4486
     17 C         137.8260  139.5986  161.6554 C.3     1  UNL1        0.0747
     18 C         137.7382  140.6635  162.7081 C.3     1  UNL1        0.0369
     19 C         138.1595  140.3629  164.1160 C.3     1  UNL1        0.0741
     20 N         138.6686  138.9973  164.4711 N.3     1  UNL1       -0.2691
     21 C         138.7564  137.9324  163.4184 C.3     1  UNL1        0.0741
     22 C         138.3351  138.2331  162.0105 C.3     1  UNL1        0.0369
     23 C         139.0898  138.6967  165.8790 C.3     1  UNL1        0.0952
     24 C         140.1200  139.5539  166.5529 C.2     1  UNL1       -0.0223
     25 C         141.5592  139.4607  166.1408 C.2     1  UNL1       -0.0067
     26 C         142.5893  140.3179  166.8146 C.2     1  UNL1        0.0006
     27 C         142.1802  141.2683  167.9006 C.2     1  UNL1        0.0154
     28 C         142.9659  142.2320  168.7396 C.2     1  UNL1        0.0218
     29 C         142.0122  142.9208  169.6703 C.2     1  UNL1        0.0985
     30 N         140.6371  142.3828  169.4065 N.2     1  UNL1       -0.2478
     31 C         140.7410  141.3614  168.3127 C.2     1  UNL1        0.0631
     32 C         139.7109  140.5042  167.6389 C.3     1  UNL1        0.0691
@<TRIPOS>BOND
     1     1     2    2
     2     2     3   am
     3     3    17    1
     4    17    18    1
     5    18    19    1
     6    19    20    1
     7    20    23    1
     8    23    24    1
     9    24    25    2
    10    25    26    1
    11    26    27    2
    12    27    28    1
    13    28    29    2
    14    29    30    1
    15    30    31    2
    16    31    32    1
    17    20    21    1
    18    21    22    1
    19     2     5    1
    20     5     6   ar
    21     6     7   ar
    22     7     8    2
    23     7     9   ar
    24     9    10   ar
    25    10    11   ar
    26    11    12   ar
    27    12    13    1
    28    12    14   ar
    29    14    15   ar
    30    15    16   ar
    31    22    17    1
    32    16     5   ar
    33    32    24    1
    34    15     9   ar
    35    31    27    1
    36     3     4    1
@<TRIPOS>MOLECULE
*****
 32 36 0 0 0
SMALL
GASTEIGER

@<TRIPOS>ATOM
      1 O         142.0037  138.5319  158.1042 O.2     1  UNL1       -0.2668
      2 C         142.6145  137.1922  158.3904 C.2     1  UNL1        0.2806
      3 N         143.2292  136.9192  159.7311 N.am    1  UNL1       -0.2999
      4 H         143.6301  136.0398  159.9190 H       1  UNL1        0.1498
      5 C         142.6106  136.1253  157.3359 C.ar    1  UNL1        0.2014
      6 C         141.7291  136.2657  156.1303 C.ar    1  UNL1        0.0843
      7 C         141.7252  135.1990  155.0758 C.ar    1  UNL1        0.2018
      8 O         140.8437  135.3393  153.8703 O.2     1  UNL1       -0.2864
      9 C         142.6027  133.9918  155.2268 C.ar    1  UNL1        0.0737
     10 C         142.5988  132.9250  154.1723 C.ar    1  UNL1        0.0085
     11 C         143.4763  131.7179  154.3234 C.ar    1  UNL1        0.0299
     12 C         144.3577  131.5776  155.5289 C.ar    1  UNL1        0.1432
     13 F         145.2353  130.3704  155.6800 F       1  UNL1       -0.2041
     14 C         144.3617  132.6443  156.5834 C.ar    1  UNL1        0.0672
     15 C         143.4842  133.8514  156.4324 C.ar    1  UNL1        0.1508
     16 O         143.4881  134.9182  157.4869 O.2     1  UNL1       -0.4486
     17 C         143.2331  137.9859  160.7856 C.3     1  UNL1        0.0747
     18 C         142.3307  137.8654  161.9777 C.3     1  UNL1        0.0369
     19 C         142.3346  138.9322  163.0322 C.3     1  UNL1        0.0741
     20 N         143.2410  140.1194  162.8947 N.3     1  UNL1       -0.2691
     21 C         144.1435  140.2399  161.7026 C.3     1  UNL1        0.0741
     22 C         144.1396  139.1731  160.6481 C.3     1  UNL1        0.0369
     23 C         143.2450  141.1862  163.9492 C.3     1  UNL1        0.0952
     24 C         141.9974  141.9714  164.2263 C.2     1  UNL1       -0.0223
     25 C         141.6725  142.3930  165.6287 C.2     1  UNL1       -0.0067
     26 C         140.4249  143.1783  165.9058 C.2     1  UNL1        0.0006
     27 C         139.5021  143.5420  164.7806 C.2     1  UNL1        0.0154
     28 C         138.2100  144.3031  164.7482 C.2     1  UNL1        0.0218
     29 C         137.7362  144.3519  163.3258 C.2     1  UNL1        0.0985
     30 N         138.7356  143.6209  162.4791 N.2     1  UNL1       -0.2478
     31 C         139.8270  143.1204  163.3782 C.2     1  UNL1        0.0631
     32 C         141.0746  142.3351  163.1011 C.3     1  UNL1        0.0691
@<TRIPOS>BOND
     1     1     2    2
     2     2     3   am
     3     3    17    1
     4    17    18    1
     5    18    19    1
     6    19    20    1
     7    20    23    1
     8    23    24    1
     9    24    25    2
    10    25    26    1
    11    26    27    2
    12    27    28    1
    13    28    29    2
    14    29    30    1
    15    30    31    2
    16    31    32    1
    17    20    21    1
    18    21    22    1
    19     2     5    1
    20     5     6   ar
    21     6     7   ar
    22     7     8    2
    23     7     9   ar
    24     9    10   ar
    25    10    11   ar
    26    11    12   ar
    27    12    13    1
    28    12    14   ar
    29    14    15   ar
    30    15    16   ar
    31    22    17    1
    32    16     5   ar
    33    32    24    1
    34    15     9   ar
    35    31    27    1
    36     3     4    1
@<TRIPOS>MOLECULE
*****
 32 36 0 0 0
SMALL
GASTEIGER

@<TRIPOS>ATOM
      1 O         142.9305  141.9676  159.8414 O.2     1  UNL1       -0.2668
      2 C         144.3232  142.4086  159.5010 C.2     1  UNL1        0.2806
      3 N         145.2767  142.7917  160.5937 N.am    1  UNL1       -0.2999
      4 H         146.1908  143.0812  160.3703 H       1  UNL1        0.1498
      5 C         144.7624  142.4666  158.0679 C.ar    1  UNL1        0.2014
      6 C         143.7519  142.6912  156.9823 C.ar    1  UNL1        0.0843
      7 C         144.1911  142.7493  155.5492 C.ar    1  UNL1        0.2018
      8 O         143.1806  142.9739  154.4636 O.2     1  UNL1       -0.2864
      9 C         145.6408  142.5826  155.2017 C.ar    1  UNL1        0.0737
     10 C         146.0799  142.6407  153.7686 C.ar    1  UNL1        0.0085
     11 C         147.5295  142.4741  153.4211 C.ar    1  UNL1        0.0299
     12 C         148.5400  142.2494  154.5067 C.ar    1  UNL1        0.1432
     13 F         149.9897  142.0828  154.1591 F       1  UNL1       -0.2041
     14 C         148.1009  142.1914  155.9397 C.ar    1  UNL1        0.0672
     15 C         146.6513  142.3580  156.2872 C.ar    1  UNL1        0.1508
     16 O         146.2120  142.3000  157.7204 O.2     1  UNL1       -0.4486
     17 C         144.8376  142.7337  162.0268 C.3     1  UNL1        0.0747
     18 C         145.2203  141.5620  162.8817 C.3     1  UNL1        0.0369
     19 C         144.7811  141.5041  164.3148 C.3     1  UNL1        0.0741
     20 N         143.9593  142.6177  164.8930 N.3     1  UNL1       -0.2691
     21 C         143.5766  143.7894  164.0381 C.3     1  UNL1        0.0741
     22 C         144.0158  143.8473  162.6050 C.3     1  UNL1        0.0369
     23 C         143.5201  142.5597  166.3261 C.3     1  UNL1        0.0952
     24 C         142.2915  141.7863  166.7033 C.2     1  UNL1       -0.0223
     25 C         141.8723  141.6989  168.1409 C.2     1  UNL1       -0.0067
     26 C         140.6436  140.9255  168.5181 C.2     1  UNL1        0.0006
     27 C         139.8343  140.2394  167.4578 C.2     1  UNL1        0.0154
     28 C         138.5857  139.4110  167.5269 C.2     1  UNL1        0.0218
     29 C         138.2333  138.9864  166.1321 C.2     1  UNL1        0.0985
     30 N         139.2641  139.5524  165.2009 N.2     1  UNL1       -0.2478
     31 C         140.2536  140.3268  166.0203 C.2     1  UNL1        0.0631
     32 C         141.4822  141.1002  165.6431 C.3     1  UNL1        0.0691
@<TRIPOS>BOND
     1     1     2    2
     2     2     3   am
     3     3    17    1
     4    17    18    1
     5    18    19    1
     6    19    20    1
     7    20    23    1
     8    23    24    1
     9    24    25    2
    10    25    26    1
    11    26    27    2
    12    27    28    1
    13    28    29    2
    14    29    30    1
    15    30    31    2
    16    31    32    1
    17    20    21    1
    18    21    22    1
    19     2     5    1
    20     5     6   ar
    21     6     7   ar
    22     7     8    2
    23     7     9   ar
    24     9    10   ar
    25    10    11   ar
    26    11    12   ar
    27    12    13    1
    28    12    14   ar
    29    14    15   ar
    30    15    16   ar
    31    22    17    1
    32    16     5   ar
    33    32    24    1
    34    15     9   ar
    35    31    27    1
    36     3     4    1
@<TRIPOS>MOLECULE
*****
 32 36 0 0 0
SMALL
GASTEIGER

@<TRIPOS>ATOM
      1 O         140.6056  139.3285  162.8160 O.2     1  UNL1       -0.2668
      2 C         141.9214  139.5731  163.4933 C.2     1  UNL1        0.2806
      3 N         143.1950  139.5086  162.7035 N.am    1  UNL1       -0.2999
      4 H         144.0586  139.6692  163.1480 H       1  UNL1        0.1498
      5 C         141.9637  139.8823  164.9606 C.ar    1  UNL1        0.2014
      6 C         142.6629  138.9489  165.9039 C.ar    1  UNL1        0.0843
      7 C         142.7052  139.2580  167.3710 C.ar    1  UNL1        0.2018
      8 O         143.4044  138.3246  168.3143 O.2     1  UNL1       -0.2864
      9 C         142.0482  140.5007  167.8950 C.ar    1  UNL1        0.0737
     10 C         142.0905  140.8098  169.3621 C.ar    1  UNL1        0.0085
     11 C         141.4336  142.0523  169.8860 C.ar    1  UNL1        0.0299
     12 C         140.7344  142.9858  168.9427 C.ar    1  UNL1        0.1432
     13 F         140.0774  144.2284  169.4666 F       1  UNL1       -0.2041
     14 C         140.6921  142.6766  167.4755 C.ar    1  UNL1        0.0672
     15 C         141.3490  141.4341  166.9516 C.ar    1  UNL1        0.1508
     16 O         141.3067  141.1249  165.4844 O.2     1  UNL1       -0.4486
     17 C         143.1527  139.1995  161.2363 C.3     1  UNL1        0.0747
     18 C         143.3601  140.2948  160.2327 C.3     1  UNL1        0.0369
     19 C         143.3179  139.9856  158.7656 C.3     1  UNL1        0.0741
     20 N         143.0683  138.5811  158.3020 N.3     1  UNL1       -0.2691
     21 C         142.8609  137.4857  159.3055 C.3     1  UNL1        0.0741
     22 C         142.9031  137.7949  160.7728 C.3     1  UNL1        0.0369
     23 C         143.0261  138.2719  156.8348 C.3     1  UNL1        0.0952
     24 C         142.6655  136.8924  156.3691 C.2     1  UNL1       -0.0223
     25 C         141.3146  136.6318  155.7714 C.2     1  UNL1       -0.0067
     26 C         140.9540  135.2522  155.3056 C.2     1  UNL1        0.0006
     27 C         141.9442  134.1333  155.4377 C.2     1  UNL1        0.0154
     28 C         141.8726  132.6809  155.0697 C.2     1  UNL1        0.0218
     29 C         143.1791  132.0439  155.4401 C.2     1  UNL1        0.0985
     30 N         144.0583  133.1026  156.0369 N.2     1  UNL1       -0.2478
     31 C         143.2951  134.3939  156.0354 C.2     1  UNL1        0.0631
     32 C         143.6557  135.7735  156.5011 C.3     1  UNL1        0.0691
@<TRIPOS>BOND
     1     1     2    2
     2     2     3   am
     3     3    17    1
     4    17    18    1
     5    18    19    1
     6    19    20    1
     7    20    23    1
     8    23    24    1
     9    24    25    2
    10    25    26    1
    11    26    27    2
    12    27    28    1
    13    28    29    2
    14    29    30    1
    15    30    31    2
    16    31    32    1
    17    20    21    1
    18    21    22    1
    19     2     5    1
    20     5     6   ar
    21     6     7   ar
    22     7     8    2
    23     7     9   ar
    24     9    10   ar
    25    10    11   ar
    26    11    12   ar
    27    12    13    1
    28    12    14   ar
    29    14    15   ar
    30    15    16   ar
    31    22    17    1
    32    16     5   ar
    33    32    24    1
    34    15     9   ar
    35    31    27    1
    36     3     4    1
