@<TRIPOS>MOLECULE
*****
 33 36 0 0 0
SMALL
GASTEIGER

@<TRIPOS>ATOM
      1 C         138.4757  144.0737  162.8087 C.3     1  UNL1        0.0900
      2 C         138.2525  142.8471  161.9746 C.3     1  UNL1        0.0359
      3 C         138.1411  141.5033  162.6318 C.3     1  UNL1        0.0737
      4 N         138.2529  141.3861  164.1230 N.3     1  UNL1       -0.2687
      5 C         138.4761  142.6127  164.9571 C.3     1  UNL1        0.1092
      6 C         138.5875  143.9564  164.2999 C.3     1  UNL1        0.1911
      7 F         138.8107  145.1830  165.1340 F       1  UNL1       -0.2343
      8 N         138.5871  145.4175  162.1516 N.3     1  UNL1       -0.2925
      9 H         138.2309  145.3112  161.2017 H       1  UNL1        0.1236
     10 C         139.9235  146.0894  162.0402 C.3     1  UNL1        0.0972
     11 C         144.9447  142.8052  162.0733 C.3     1  UNL1        0.0528
     12 C         143.6894  143.6262  162.0650 C.ar    1  UNL1        0.0689
     13 N         142.8574  143.7118  160.8199 N.ar    1  UNL1       -0.2477
     14 C         141.6021  144.5328  160.8117 C.ar    1  UNL1        0.0955
     15 C         141.1788  145.2683  162.0485 C.ar    1  UNL1        0.0135
     16 C         142.0109  145.1828  163.2936 C.ar    1  UNL1        0.0101
     17 C         143.2662  144.3617  163.3019 C.ar    1  UNL1        0.0817
     18 C         144.0982  144.2762  164.5471 C.1     1  UNL1        0.1016
     19 N         144.9302  144.1907  165.7922 N.1     1  UNL1       -0.1908
     20 C         138.1415  140.0423  164.7802 C.3     1  UNL1        0.0970
     21 C         139.3808  139.2991  165.1825 C.3     1  UNL1        0.1264
     22 N         140.5156  140.0312  165.8355 N.ar    1  UNL1       -0.2926
     23 C         141.7227  140.4139  165.0315 C.ar    1  UNL1        0.2611
     24 O         141.7951  140.0645  163.5745 O.2     1  UNL1       -0.2670
     25 C         142.8575  141.1460  165.6845 C.ar    1  UNL1        0.0623
     26 C         142.7851  141.4954  167.1414 C.ar    1  UNL1        0.0255
     27 C         141.5780  141.1127  167.9454 C.ar    1  UNL1        0.0974
     28 N         141.5057  141.4621  169.4023 N.ar    1  UNL1       -0.2400
     29 C         140.2985  141.0794  170.2063 C.ar    1  UNL1        0.1285
     30 C         139.1638  140.3473  169.5533 C.ar    1  UNL1        0.1607
     31 F         137.9566  139.9646  170.3574 F       1  UNL1       -0.2025
     32 C         139.2361  139.9979  168.0964 C.ar    1  UNL1        0.0500
     33 C         140.4432  140.3806  167.2925 C.ar    1  UNL1        0.0824
@<TRIPOS>BOND
     1    11    12    1
     2    12    13   ar
     3    13    14   ar
     4    14    15   ar
     5    15    10    1
     6    10     8    1
     7     1     8    1
     8     1     2    1
     9     2     3    1
    10     3     4    1
    11     4    20    1
    12    20    21    1
    13    21    22    1
    14    22    23   ar
    15    23    24    2
    16    23    25   ar
    17    25    26   ar
    18    26    27   ar
    19    27    28   ar
    20    28    29   ar
    21    29    30   ar
    22    30    31    1
    23    30    32   ar
    24    32    33   ar
    25     4     5    1
    26     5     6    1
    27     6     7    1
    28    15    16   ar
    29    16    17   ar
    30    17    18    1
    31    18    19    3
    32    17    12   ar
    33     6     1    1
    34    33    22   ar
    35    33    27   ar
    36     8     9    1
@<TRIPOS>MOLECULE
*****
 33 36 0 0 0
SMALL
GASTEIGER

@<TRIPOS>ATOM
      1 C         137.8693  142.8633  162.3296 C.3     1  UNL1        0.0900
      2 C         138.2567  142.1027  161.0961 C.3     1  UNL1        0.0359
      3 C         138.3989  140.6104  161.1488 C.3     1  UNL1        0.0737
      4 N         138.1537  139.8787  162.4351 N.3     1  UNL1       -0.2687
      5 C         137.7662  140.6392  163.6686 C.3     1  UNL1        0.1092
      6 C         137.6240  142.1315  163.6158 C.3     1  UNL1        0.1911
      7 F         137.2365  142.8921  164.8492 F       1  UNL1       -0.2343
      8 N         137.7270  144.3556  162.2768 N.3     1  UNL1       -0.2925
      9 H         137.5892  144.6038  161.2971 H       1  UNL1        0.1236
     10 C         138.8281  145.2327  162.7949 C.3     1  UNL1        0.0972
     11 C         144.5495  143.5178  162.2252 C.3     1  UNL1        0.0528
     12 C         143.1191  143.9465  162.3676 C.ar    1  UNL1        0.0689
     13 N         142.3757  144.4843  161.1811 N.ar    1  UNL1       -0.2477
     14 C         140.9453  144.9131  161.3235 C.ar    1  UNL1        0.0955
     15 C         140.2584  144.8040  162.6524 C.ar    1  UNL1        0.0135
     16 C         141.0019  144.2661  163.8390 C.ar    1  UNL1        0.0101
     17 C         142.4322  143.8374  163.6966 C.ar    1  UNL1        0.0817
     18 C         143.1757  143.2996  164.8832 C.1     1  UNL1        0.1016
     19 N         143.9191  142.7618  166.0698 N.1     1  UNL1       -0.1908
     20 C         138.2959  138.3864  162.4879 C.3     1  UNL1        0.0970
     21 C         139.0071  137.7410  163.6403 C.3     1  UNL1        0.1264
     22 N         140.3668  138.2252  164.0485 N.ar    1  UNL1       -0.2926
     23 C         141.5311  138.0648  163.1164 C.ar    1  UNL1        0.2611
     24 O         141.3356  137.4202  161.7761 O.2     1  UNL1       -0.2670
     25 C         142.8909  138.5489  163.5246 C.ar    1  UNL1        0.0623
     26 C         143.0864  139.1935  164.8648 C.ar    1  UNL1        0.0255
     27 C         141.9221  139.3539  165.7970 C.ar    1  UNL1        0.0974
     28 N         142.1176  139.9984  167.1372 N.ar    1  UNL1       -0.2400
     29 C         140.9534  140.1588  168.0693 C.ar    1  UNL1        0.1285
     30 C         139.5936  139.6746  167.6611 C.ar    1  UNL1        0.1607
     31 F         138.4293  139.8350  168.5932 F       1  UNL1       -0.2025
     32 C         139.3981  139.0301  166.3208 C.ar    1  UNL1        0.0500
     33 C         140.5623  138.8697  165.3888 C.ar    1  UNL1        0.0824
@<TRIPOS>BOND
     1    11    12    1
     2    12    13   ar
     3    13    14   ar
     4    14    15   ar
     5    15    10    1
     6    10     8    1
     7     1     8    1
     8     1     2    1
     9     2     3    1
    10     3     4    1
    11     4    20    1
    12    20    21    1
    13    21    22    1
    14    22    23   ar
    15    23    24    2
    16    23    25   ar
    17    25    26   ar
    18    26    27   ar
    19    27    28   ar
    20    28    29   ar
    21    29    30   ar
    22    30    31    1
    23    30    32   ar
    24    32    33   ar
    25     4     5    1
    26     5     6    1
    27     6     7    1
    28    15    16   ar
    29    16    17   ar
    30    17    18    1
    31    18    19    3
    32    17    12   ar
    33     6     1    1
    34    33    22   ar
    35    33    27   ar
    36     8     9    1
@<TRIPOS>MOLECULE
*****
 33 36 0 0 0
SMALL
GASTEIGER

@<TRIPOS>ATOM
      1 C         143.8304  143.5073  162.2156 C.3     1  UNL1        0.0900
      2 C         142.8138  143.4379  161.1148 C.3     1  UNL1        0.0359
      3 C         141.4626  144.0620  161.3014 C.3     1  UNL1        0.0737
      4 N         141.1280  144.7554  162.5888 N.3     1  UNL1       -0.2687
      5 C         142.1447  144.8247  163.6895 C.3     1  UNL1        0.1092
      6 C         143.4959  144.2007  163.5029 C.3     1  UNL1        0.1911
      7 F         144.5125  144.2700  164.6036 F       1  UNL1       -0.2343
      8 N         145.1816  142.8832  162.0289 N.3     1  UNL1       -0.2925
      9 H         145.2194  142.5447  161.0675 H       1  UNL1        0.1236
     10 C         145.6093  141.7441  162.9061 C.3     1  UNL1        0.0972
     11 C         141.6014  137.6361  164.6555 C.3     1  UNL1        0.0528
     12 C         142.6033  138.6631  164.2182 C.ar    1  UNL1        0.0689
     13 N         142.8103  138.9346  162.7576 N.ar    1  UNL1       -0.2477
     14 C         143.8123  139.9616  162.3202 C.ar    1  UNL1        0.0955
     15 C         144.6073  140.7171  163.3435 C.ar    1  UNL1        0.0135
     16 C         144.4004  140.4456  164.8041 C.ar    1  UNL1        0.0101
     17 C         143.3984  139.4186  165.2414 C.ar    1  UNL1        0.0817
     18 C         143.1914  139.1471  166.7021 C.1     1  UNL1        0.1016
     19 N         142.9845  138.8757  168.1627 N.1     1  UNL1       -0.1908
     20 C         139.7769  145.3795  162.7755 C.3     1  UNL1        0.0970
     21 C         138.7599  144.7167  163.6567 C.3     1  UNL1        0.1264
     22 N         138.7039  143.2202  163.7433 N.ar    1  UNL1       -0.2926
     23 C         138.1466  142.4233  162.6012 C.ar    1  UNL1        0.2611
     24 O         137.6454  143.1228  161.3726 O.2     1  UNL1       -0.2670
     25 C         138.0907  140.9268  162.6877 C.ar    1  UNL1        0.0623
     26 C         138.5919  140.2273  163.9163 C.ar    1  UNL1        0.0255
     27 C         139.1492  141.0243  165.0584 C.ar    1  UNL1        0.0974
     28 N         139.6504  140.3248  166.2870 N.ar    1  UNL1       -0.2400
     29 C         140.2077  141.1217  167.4290 C.ar    1  UNL1        0.1285
     30 C         140.2637  142.6182  167.3425 C.ar    1  UNL1        0.1607
     31 F         140.8210  143.4152  168.4846 F       1  UNL1       -0.2025
     32 C         139.7624  143.3177  166.1139 C.ar    1  UNL1        0.0500
     33 C         139.2052  142.5207  164.9719 C.ar    1  UNL1        0.0824
@<TRIPOS>BOND
     1    11    12    1
     2    12    13   ar
     3    13    14   ar
     4    14    15   ar
     5    15    10    1
     6    10     8    1
     7     1     8    1
     8     1     2    1
     9     2     3    1
    10     3     4    1
    11     4    20    1
    12    20    21    1
    13    21    22    1
    14    22    23   ar
    15    23    24    2
    16    23    25   ar
    17    25    26   ar
    18    26    27   ar
    19    27    28   ar
    20    28    29   ar
    21    29    30   ar
    22    30    31    1
    23    30    32   ar
    24    32    33   ar
    25     4     5    1
    26     5     6    1
    27     6     7    1
    28    15    16   ar
    29    16    17   ar
    30    17    18    1
    31    18    19    3
    32    17    12   ar
    33     6     1    1
    34    33    22   ar
    35    33    27   ar
    36     8     9    1
@<TRIPOS>MOLECULE
*****
 33 36 0 0 0
SMALL
GASTEIGER

@<TRIPOS>ATOM
      1 C         139.8258  144.5555  162.5698 C.3     1  UNL1        0.0900
      2 C         140.7221  144.2082  161.4183 C.3     1  UNL1        0.0359
      3 C         142.1963  144.0414  161.6391 C.3     1  UNL1        0.0737
      4 N         142.7743  144.2219  163.0115 N.3     1  UNL1       -0.2687
      5 C         141.8779  144.5693  164.1630 C.3     1  UNL1        0.1092
      6 C         140.4037  144.7360  163.9422 C.3     1  UNL1        0.1911
      7 F         139.5074  145.0834  165.0936 F       1  UNL1       -0.2343
      8 N         138.3515  144.7223  162.3490 N.3     1  UNL1       -0.2925
      9 H         138.1091  145.6581  162.6742 H       1  UNL1        0.1236
     10 C         137.3844  143.7752  162.9953 C.3     1  UNL1        0.0972
     11 C         138.7951  137.9711  163.5636 C.3     1  UNL1        0.0528
     12 C         138.4424  139.4222  163.4215 C.ar    1  UNL1        0.0689
     13 N         138.2922  140.0274  162.0573 N.ar    1  UNL1       -0.2477
     14 C         137.9395  141.4784  161.9153 C.ar    1  UNL1        0.0955
     15 C         137.7371  142.3242  163.1374 C.ar    1  UNL1        0.0135
     16 C         137.8873  141.7190  164.5016 C.ar    1  UNL1        0.0101
     17 C         138.2400  140.2679  164.6436 C.ar    1  UNL1        0.0817
     18 C         138.3902  139.6627  166.0079 C.1     1  UNL1        0.1016
     19 N         138.5404  139.0575  167.3721 N.1     1  UNL1       -0.1908
     20 C         144.2485  144.0552  163.2324 C.3     1  UNL1        0.0970
     21 C         144.7462  143.1571  164.3260 C.3     1  UNL1        0.1264
     22 N         144.2260  141.7549  164.4400 N.ar    1  UNL1       -0.2926
     23 C         144.4924  140.7648  163.3452 C.ar    1  UNL1        0.2611
     24 O         145.2791  141.1770  162.1363 O.2     1  UNL1       -0.2670
     25 C         143.9721  139.3625  163.4591 C.ar    1  UNL1        0.0623
     26 C         143.1855  138.9503  164.6679 C.ar    1  UNL1        0.0255
     27 C         142.9190  139.9404  165.7628 C.ar    1  UNL1        0.0974
     28 N         142.1324  139.5282  166.9716 N.ar    1  UNL1       -0.2400
     29 C         141.8660  140.5183  168.0665 C.ar    1  UNL1        0.1285
     30 C         142.3862  141.9206  167.9525 C.ar    1  UNL1        0.1607
     31 F         142.1197  142.9107  169.0474 F       1  UNL1       -0.2025
     32 C         143.1728  142.3328  166.7437 C.ar    1  UNL1        0.0500
     33 C         143.4393  141.3427  165.6489 C.ar    1  UNL1        0.0824
@<TRIPOS>BOND
     1    11    12    1
     2    12    13   ar
     3    13    14   ar
     4    14    15   ar
     5    15    10    1
     6    10     8    1
     7     1     8    1
     8     1     2    1
     9     2     3    1
    10     3     4    1
    11     4    20    1
    12    20    21    1
    13    21    22    1
    14    22    23   ar
    15    23    24    2
    16    23    25   ar
    17    25    26   ar
    18    26    27   ar
    19    27    28   ar
    20    28    29   ar
    21    29    30   ar
    22    30    31    1
    23    30    32   ar
    24    32    33   ar
    25     4     5    1
    26     5     6    1
    27     6     7    1
    28    15    16   ar
    29    16    17   ar
    30    17    18    1
    31    18    19    3
    32    17    12   ar
    33     6     1    1
    34    33    22   ar
    35    33    27   ar
    36     8     9    1
@<TRIPOS>MOLECULE
*****
 33 36 0 0 0
SMALL
GASTEIGER

@<TRIPOS>ATOM
      1 C         138.1809  140.0081  162.0005 C.3     1  UNL1        0.0900
      2 C         138.2230  141.1309  161.0067 C.3     1  UNL1        0.0359
      3 C         138.0918  142.5505  161.4730 C.3     1  UNL1        0.0737
      4 N         137.9184  142.8474  162.9331 N.3     1  UNL1       -0.2687
      5 C         137.8763  141.7246  163.9269 C.3     1  UNL1        0.1092
      6 C         138.0075  140.3050  163.4606 C.3     1  UNL1        0.1911
      7 F         137.9654  139.1822  164.4543 F       1  UNL1       -0.2343
      8 N         138.3121  138.5885  161.5343 N.3     1  UNL1       -0.2925
      9 H         137.8245  138.0081  162.2168 H       1  UNL1        0.1236
     10 C         139.6717  137.9840  161.3445 C.3     1  UNL1        0.0972
     11 C         143.8832  138.6891  165.5595 C.3     1  UNL1        0.0528
     12 C         142.8303  138.5128  164.5058 C.ar    1  UNL1        0.0689
     13 N         141.6660  137.6003  164.7541 N.ar    1  UNL1       -0.2477
     14 C         140.6132  137.4241  163.7004 C.ar    1  UNL1        0.0955
     15 C         140.7246  138.1603  162.3983 C.ar    1  UNL1        0.0135
     16 C         141.8889  139.0728  162.1499 C.ar    1  UNL1        0.0101
     17 C         142.9418  139.2490  163.2037 C.ar    1  UNL1        0.0817
     18 C         144.1061  140.1615  162.9553 C.1     1  UNL1        0.1016
     19 N         145.2705  141.0740  162.7069 N.1     1  UNL1       -0.1908
     20 C         137.7872  144.2670  163.3994 C.3     1  UNL1        0.0970
     21 C         138.8244  144.8567  164.3086 C.3     1  UNL1        0.1264
     22 N         140.2723  144.5154  164.1156 N.ar    1  UNL1       -0.2926
     23 C         141.0314  145.0938  162.9584 C.ar    1  UNL1        0.2611
     24 O         140.3426  146.0136  161.9941 O.2     1  UNL1       -0.2670
     25 C         142.4792  144.7526  162.7654 C.ar    1  UNL1        0.0623
     26 C         143.1680  143.8329  163.7296 C.ar    1  UNL1        0.0255
     27 C         142.4089  143.2544  164.8869 C.ar    1  UNL1        0.0974
     28 N         143.0976  142.3348  165.8511 N.ar    1  UNL1       -0.2400
     29 C         142.3385  141.7564  167.0083 C.ar    1  UNL1        0.1285
     30 C         140.8907  142.0976  167.2013 C.ar    1  UNL1        0.1607
     31 F         140.1316  141.5192  168.3586 F       1  UNL1       -0.2025
     32 C         140.2019  143.0173  166.2371 C.ar    1  UNL1        0.0500
     33 C         140.9610  143.5957  165.0799 C.ar    1  UNL1        0.0824
@<TRIPOS>BOND
     1    11    12    1
     2    12    13   ar
     3    13    14   ar
     4    14    15   ar
     5    15    10    1
     6    10     8    1
     7     1     8    1
     8     1     2    1
     9     2     3    1
    10     3     4    1
    11     4    20    1
    12    20    21    1
    13    21    22    1
    14    22    23   ar
    15    23    24    2
    16    23    25   ar
    17    25    26   ar
    18    26    27   ar
    19    27    28   ar
    20    28    29   ar
    21    29    30   ar
    22    30    31    1
    23    30    32   ar
    24    32    33   ar
    25     4     5    1
    26     5     6    1
    27     6     7    1
    28    15    16   ar
    29    16    17   ar
    30    17    18    1
    31    18    19    3
    32    17    12   ar
    33     6     1    1
    34    33    22   ar
    35    33    27   ar
    36     8     9    1
@<TRIPOS>MOLECULE
*****
 33 36 0 0 0
SMALL
GASTEIGER

@<TRIPOS>ATOM
      1 C         142.5416  138.2968  162.6870 C.3     1  UNL1        0.0900
      2 C         143.1562  139.1783  161.6405 C.3     1  UNL1        0.0359
      3 C         144.1778  140.2051  162.0304 C.3     1  UNL1        0.0737
      4 N         144.5848  140.3503  163.4668 N.3     1  UNL1       -0.2687
      5 C         143.9702  139.4688  164.5133 C.3     1  UNL1        0.1092
      6 C         142.9486  138.4420  164.1234 C.3     1  UNL1        0.1911
      7 F         142.3340  137.5605  165.1698 F       1  UNL1       -0.2343
      8 N         141.5200  137.2700  162.2971 N.3     1  UNL1       -0.2925
      9 H         141.3986  137.3441  161.2871 H       1  UNL1        0.1236
     10 C         140.1480  137.3096  162.9022 C.3     1  UNL1        0.0972
     11 C         137.5668  142.5823  164.1414 C.3     1  UNL1        0.0528
     12 C         138.2121  141.2641  163.8316 C.ar    1  UNL1        0.0689
     13 N         138.3692  140.2340  164.9105 N.ar    1  UNL1       -0.2477
     14 C         139.0145  138.9158  164.6007 C.ar    1  UNL1        0.0955
     15 C         139.5027  138.6278  163.2120 C.ar    1  UNL1        0.0135
     16 C         139.3456  139.6579  162.1331 C.ar    1  UNL1        0.0101
     17 C         138.7003  140.9760  162.4429 C.ar    1  UNL1        0.0817
     18 C         138.5431  142.0062  161.3639 C.1     1  UNL1        0.1016
     19 N         138.3860  143.0363  160.2849 N.1     1  UNL1       -0.1908
     20 C         145.6064  141.3771  163.8567 C.3     1  UNL1        0.0970
     21 C         145.1661  142.7257  164.3442 C.3     1  UNL1        0.1264
     22 N         143.7341  143.1465  164.1946 N.ar    1  UNL1       -0.2926
     23 C         143.2676  143.7781  162.9166 C.ar    1  UNL1        0.2611
     24 O         144.2331  143.9891  161.7881 O.2     1  UNL1       -0.2670
     25 C         141.8356  144.1989  162.7671 C.ar    1  UNL1        0.0623
     26 C         140.8701  143.9880  163.8955 C.ar    1  UNL1        0.0255
     27 C         141.3367  143.3563  165.1736 C.ar    1  UNL1        0.0974
     28 N         140.3712  143.1454  166.3020 N.ar    1  UNL1       -0.2400
     29 C         140.8378  142.5138  167.5800 C.ar    1  UNL1        0.1285
     30 C         142.2697  142.0930  167.7295 C.ar    1  UNL1        0.1607
     31 F         142.7363  141.4613  169.0076 F       1  UNL1       -0.2025
     32 C         143.2352  142.3039  166.6011 C.ar    1  UNL1        0.0500
     33 C         142.7687  142.9356  165.3231 C.ar    1  UNL1        0.0824
@<TRIPOS>BOND
     1    11    12    1
     2    12    13   ar
     3    13    14   ar
     4    14    15   ar
     5    15    10    1
     6    10     8    1
     7     1     8    1
     8     1     2    1
     9     2     3    1
    10     3     4    1
    11     4    20    1
    12    20    21    1
    13    21    22    1
    14    22    23   ar
    15    23    24    2
    16    23    25   ar
    17    25    26   ar
    18    26    27   ar
    19    27    28   ar
    20    28    29   ar
    21    29    30   ar
    22    30    31    1
    23    30    32   ar
    24    32    33   ar
    25     4     5    1
    26     5     6    1
    27     6     7    1
    28    15    16   ar
    29    16    17   ar
    30    17    18    1
    31    18    19    3
    32    17    12   ar
    33     6     1    1
    34    33    22   ar
    35    33    27   ar
    36     8     9    1
@<TRIPOS>MOLECULE
*****
 33 36 0 0 0
SMALL
GASTEIGER

@<TRIPOS>ATOM
      1 C         140.1458  137.8541  162.3615 C.3     1  UNL1        0.0900
      2 C         139.5999  137.7234  163.7525 C.3     1  UNL1        0.0359
      3 C         140.5131  137.8701  164.9334 C.3     1  UNL1        0.0737
      4 N         141.9722  138.1476  164.7233 N.3     1  UNL1       -0.2687
      5 C         142.5180  138.2782  163.3323 C.3     1  UNL1        0.1092
      6 C         141.6048  138.1315  162.1514 C.3     1  UNL1        0.1911
      7 F         142.1507  138.2622  160.7604 F       1  UNL1       -0.2343
      8 N         139.2326  137.7073  161.1806 N.3     1  UNL1       -0.2925
      9 H         139.6895  137.0652  160.5330 H       1  UNL1        0.1236
     10 C         138.8356  138.9152  160.3848 C.3     1  UNL1        0.0972
     11 C         137.7681  144.1229  163.1670 C.3     1  UNL1        0.0528
     12 C         138.0350  142.8210  162.4714 C.ar    1  UNL1        0.0689
     13 N         137.1450  141.6400  162.7229 N.ar    1  UNL1       -0.2477
     14 C         137.4119  140.3381  162.0273 C.ar    1  UNL1        0.0955
     15 C         138.5687  140.2171  161.0803 C.ar    1  UNL1        0.0135
     16 C         139.4588  141.3980  160.8288 C.ar    1  UNL1        0.0101
     17 C         139.1919  142.7000  161.5244 C.ar    1  UNL1        0.0817
     18 C         140.0820  143.8809  161.2729 C.1     1  UNL1        0.1016
     19 N         140.9720  145.0618  161.0214 N.1     1  UNL1       -0.1908
     20 C         142.8854  138.2943  165.9042 C.3     1  UNL1        0.0970
     21 C         142.8680  139.5573  166.7133 C.3     1  UNL1        0.1264
     22 N         142.1857  140.7814  166.1784 N.ar    1  UNL1       -0.2926
     23 C         140.8004  141.1286  166.6370 C.ar    1  UNL1        0.2611
     24 O         140.0974  140.2518  167.6305 O.2     1  UNL1       -0.2670
     25 C         140.1181  142.3527  166.1020 C.ar    1  UNL1        0.0623
     26 C         140.8211  143.2295  165.1085 C.ar    1  UNL1        0.0255
     27 C         142.2064  142.8822  164.6499 C.ar    1  UNL1        0.0974
     28 N         142.9094  143.7590  163.6564 N.ar    1  UNL1       -0.2400
     29 C         144.2946  143.4117  163.1978 C.ar    1  UNL1        0.1285
     30 C         144.9770  142.1876  163.7327 C.ar    1  UNL1        0.1607
     31 F         146.3623  141.8404  163.2741 F       1  UNL1       -0.2025
     32 C         144.2740  141.3109  164.7262 C.ar    1  UNL1        0.0500
     33 C         142.8887  141.6582  165.1848 C.ar    1  UNL1        0.0824
@<TRIPOS>BOND
     1    11    12    1
     2    12    13   ar
     3    13    14   ar
     4    14    15   ar
     5    15    10    1
     6    10     8    1
     7     1     8    1
     8     1     2    1
     9     2     3    1
    10     3     4    1
    11     4    20    1
    12    20    21    1
    13    21    22    1
    14    22    23   ar
    15    23    24    2
    16    23    25   ar
    17    25    26   ar
    18    26    27   ar
    19    27    28   ar
    20    28    29   ar
    21    29    30   ar
    22    30    31    1
    23    30    32   ar
    24    32    33   ar
    25     4     5    1
    26     5     6    1
    27     6     7    1
    28    15    16   ar
    29    16    17   ar
    30    17    18    1
    31    18    19    3
    32    17    12   ar
    33     6     1    1
    34    33    22   ar
    35    33    27   ar
    36     8     9    1
@<TRIPOS>MOLECULE
*****
 33 36 0 0 0
SMALL
GASTEIGER

@<TRIPOS>ATOM
      1 C         143.9503  139.9809  163.3656 C.3     1  UNL1        0.0900
      2 C         143.8484  139.3386  164.7174 C.3     1  UNL1        0.0359
      3 C         143.3457  140.1305  165.8880 C.3     1  UNL1        0.0737
      4 N         142.9449  141.5646  165.7068 N.3     1  UNL1       -0.2687
      5 C         143.0468  142.2068  164.3551 C.3     1  UNL1        0.1092
      6 C         143.5495  141.4149  163.1845 C.3     1  UNL1        0.1911
      7 F         143.6514  142.0571  161.8328 F       1  UNL1       -0.2343
      8 N         144.4529  139.1890  162.1950 N.3     1  UNL1       -0.2925
      9 H         144.5127  139.8339  161.4071 H       1  UNL1        0.1236
     10 C         143.6885  137.9904  161.7165 C.3     1  UNL1        0.0972
     11 C         137.6893  138.0787  161.6749 C.3     1  UNL1        0.0528
     12 C         139.1891  138.0566  161.6853 C.ar    1  UNL1        0.0689
     13 N         139.9223  137.4545  162.8472 N.ar    1  UNL1       -0.2477
     14 C         141.4221  137.4324  162.8576 C.ar    1  UNL1        0.0955
     15 C         142.1887  138.0125  161.7061 C.ar    1  UNL1        0.0135
     16 C         141.4555  138.6146  160.5443 C.ar    1  UNL1        0.0101
     17 C         139.9557  138.6366  160.5339 C.ar    1  UNL1        0.0817
     18 C         139.2225  139.2388  159.3720 C.1     1  UNL1        0.1016
     19 N         138.4894  139.8409  158.2102 N.1     1  UNL1       -0.1908
     20 C         142.4422  142.3565  166.8773 C.3     1  UNL1        0.0970
     21 C         140.9670  142.5186  167.0952 C.3     1  UNL1        0.1264
     22 N         140.0067  141.5423  166.4831 N.ar    1  UNL1       -0.2926
     23 C         139.8148  140.1901  167.1031 C.ar    1  UNL1        0.2611
     24 O         140.5831  139.8140  168.3353 O.2     1  UNL1       -0.2670
     25 C         138.8545  139.2138  166.4910 C.ar    1  UNL1        0.0623
     26 C         138.0862  139.5897  165.2588 C.ar    1  UNL1        0.0255
     27 C         138.2781  140.9421  164.6387 C.ar    1  UNL1        0.0974
     28 N         137.5097  141.3180  163.4066 N.ar    1  UNL1       -0.2400
     29 C         137.7017  142.6703  162.7865 C.ar    1  UNL1        0.1285
     30 C         138.6619  143.6466  163.3987 C.ar    1  UNL1        0.1607
     31 F         138.8539  144.9989  162.7786 F       1  UNL1       -0.2025
     32 C         139.4303  143.2706  164.6308 C.ar    1  UNL1        0.0500
     33 C         139.2383  141.9184  165.2509 C.ar    1  UNL1        0.0824
@<TRIPOS>BOND
     1    11    12    1
     2    12    13   ar
     3    13    14   ar
     4    14    15   ar
     5    15    10    1
     6    10     8    1
     7     1     8    1
     8     1     2    1
     9     2     3    1
    10     3     4    1
    11     4    20    1
    12    20    21    1
    13    21    22    1
    14    22    23   ar
    15    23    24    2
    16    23    25   ar
    17    25    26   ar
    18    26    27   ar
    19    27    28   ar
    20    28    29   ar
    21    29    30   ar
    22    30    31    1
    23    30    32   ar
    24    32    33   ar
    25     4     5    1
    26     5     6    1
    27     6     7    1
    28    15    16   ar
    29    16    17   ar
    30    17    18    1
    31    18    19    3
    32    17    12   ar
    33     6     1    1
    34    33    22   ar
    35    33    27   ar
    36     8     9    1
@<TRIPOS>MOLECULE
*****
 33 36 0 0 0
SMALL
GASTEIGER

@<TRIPOS>ATOM
      1 C         142.8096  138.3790  162.9125 C.3     1  UNL1        0.0900
      2 C         142.7958  138.4642  164.4101 C.3     1  UNL1        0.0359
      3 C         141.5240  138.2111  165.1640 C.3     1  UNL1        0.0737
      4 N         140.2660  137.8726  164.4203 N.3     1  UNL1       -0.2687
      5 C         140.2798  137.7874  162.9229 C.3     1  UNL1        0.1092
      6 C         141.5517  138.0405  162.1689 C.3     1  UNL1        0.1911
      7 F         141.5655  137.9553  160.6715 F       1  UNL1       -0.2343
      8 N         144.0814  138.6321  162.1586 N.3     1  UNL1       -0.2925
      9 H         144.8413  138.5799  162.8370 H       1  UNL1        0.1236
     10 C         144.2628  139.9152  161.4031 C.3     1  UNL1        0.0972
     11 C         142.3265  145.0827  163.7585 C.3     1  UNL1        0.0528
     12 C         142.8106  143.7908  163.1697 C.ar    1  UNL1        0.0689
     13 N         142.1426  143.2249  161.9517 N.ar    1  UNL1       -0.2477
     14 C         142.6267  141.9330  161.3629 C.ar    1  UNL1        0.0955
     15 C         143.7787  141.2071  161.9920 C.ar    1  UNL1        0.0135
     16 C         144.4467  141.7731  163.2099 C.ar    1  UNL1        0.0101
     17 C         143.9626  143.0649  163.7988 C.ar    1  UNL1        0.0817
     18 C         144.6307  143.6309  165.0168 C.1     1  UNL1        0.1016
     19 N         145.2987  144.1968  166.2348 N.1     1  UNL1       -0.1908
     20 C         138.9942  137.6195  165.1743 C.3     1  UNL1        0.0970
     21 C         138.2263  138.7688  165.7570 C.3     1  UNL1        0.1264
     22 N         138.7991  140.1543  165.7096 N.ar    1  UNL1       -0.2926
     23 C         138.5749  141.0177  164.5037 C.ar    1  UNL1        0.2611
     24 O         137.7780  140.4956  163.3451 O.2     1  UNL1       -0.2670
     25 C         139.1477  142.4033  164.4564 C.ar    1  UNL1        0.0623
     26 C         139.9446  142.9254  165.6149 C.ar    1  UNL1        0.0255
     27 C         140.1688  142.0620  166.8209 C.ar    1  UNL1        0.0974
     28 N         140.9657  142.5842  167.9794 N.ar    1  UNL1       -0.2400
     29 C         141.1898  141.7208  169.1853 C.ar    1  UNL1        0.1285
     30 C         140.6171  140.3352  169.2327 C.ar    1  UNL1        0.1607
     31 F         140.8412  139.4719  170.4387 F       1  UNL1       -0.2025
     32 C         139.8202  139.8131  168.0742 C.ar    1  UNL1        0.0500
     33 C         139.5960  140.6765  166.8683 C.ar    1  UNL1        0.0824
@<TRIPOS>BOND
     1    11    12    1
     2    12    13   ar
     3    13    14   ar
     4    14    15   ar
     5    15    10    1
     6    10     8    1
     7     1     8    1
     8     1     2    1
     9     2     3    1
    10     3     4    1
    11     4    20    1
    12    20    21    1
    13    21    22    1
    14    22    23   ar
    15    23    24    2
    16    23    25   ar
    17    25    26   ar
    18    26    27   ar
    19    27    28   ar
    20    28    29   ar
    21    29    30   ar
    22    30    31    1
    23    30    32   ar
    24    32    33   ar
    25     4     5    1
    26     5     6    1
    27     6     7    1
    28    15    16   ar
    29    16    17   ar
    30    17    18    1
    31    18    19    3
    32    17    12   ar
    33     6     1    1
    34    33    22   ar
    35    33    27   ar
    36     8     9    1
