@<TRIPOS>MOLECULE
*****
 40 43 0 0 0
SMALL
GASTEIGER

@<TRIPOS>ATOM
      1 N         138.7945  140.0626  160.6893 N.3     1  UNL1       -0.2725
      2 C         139.8880  140.7842  159.9590 C.3     1  UNL1        0.0738
      3 C         139.4043  141.0742  158.5691 C.3     1  UNL1        0.0383
      4 C         138.0117  140.5318  158.4403 C.3     1  UNL1        0.0889
      5 C         137.6349  139.9066  159.7506 C.3     1  UNL1        0.0919
      6 C         138.9629  138.6187  164.9480 C.3     1  UNL1        0.1085
      7 O         138.9169  137.3397  165.7304 O.3     1  UNL1       -0.3826
      8 C         139.0548  140.0858  164.6493 C.3     1  UNL1        0.0326
      9 C         138.9986  140.5671  163.2297 C.3     1  UNL1        0.0187
     10 C         138.8507  139.5813  162.1088 C.3     1  UNL1        0.0577
     11 C         138.7588  138.1143  162.4075 C.3     1  UNL1        0.0187
     12 C         138.8149  137.6330  163.8271 C.3     1  UNL1        0.0326
     13 H         138.9936  137.5368  166.6770 H       1  UNL1        0.2107
     14 C         139.3589  140.2435  169.1257 C.ar    1  UNL1        0.2250
     15 C         140.4205  140.5303  168.1057 C.ar    1  UNL1        0.0575
     16 C         140.2885  139.9887  166.7131 C.ar    1  UNL1        0.0043
     17 C         139.0949  139.1603  166.3406 C.ar    1  UNL1        0.0211
     18 C         138.0332  138.8734  167.3606 C.ar    1  UNL1        0.1000
     19 N         138.1652  139.4150  168.7532 N.ar    1  UNL1       -0.2104
     20 C         140.8390  140.8516  171.1725 C.3     1  UNL1        0.2542
     21 O         139.4909  140.7851  170.5183 O.3     1  UNL1       -0.4561
     22 N         137.1478  140.6023  157.2162 N.am    1  UNL1       -0.3032
     23 C         136.9250  141.9175  156.5302 C.2     1  UNL1        0.2425
     24 O         137.5662  143.1622  157.0682 O.2     1  UNL1       -0.2733
     25 H         136.7269  139.7853  156.8630 H       1  UNL1        0.1495
     26 C         136.0610  141.9880  155.3059 C.3     1  UNL1        0.1759
     27 N         134.5695  141.8936  155.4342 N.am    1  UNL1       -0.2931
     28 C         133.9307  140.5920  155.8185 C.2     1  UNL1        0.2462
     29 O         134.7833  139.3848  156.0746 O.2     1  UNL1       -0.2701
     30 H         134.0098  142.6859  155.2661 H       1  UNL1        0.1502
     31 C         132.4391  140.4976  155.9467 C.ar    1  UNL1        0.0533
     32 C         131.5662  141.5603  155.3478 C.ar    1  UNL1        0.0045
     33 C         130.0747  141.4659  155.4760 C.ar    1  UNL1        0.0001
     34 C         129.4560  140.3089  156.2031 C.ar    1  UNL1        0.0039
     35 C         130.3290  139.2462  156.8019 C.ar    1  UNL1        0.0716
     36 C         131.8206  139.3406  156.6737 C.ar    1  UNL1        0.0084
     37 C         129.7105  138.0891  157.5290 C.3     1  UNL1        0.4186
     38 F         129.0919  136.9321  158.2561 F       1  UNL1       -0.1659
     39 F         130.6538  138.3050  158.6751 F       1  UNL1       -0.1659
     40 F         128.7671  137.8733  156.3829 F       1  UNL1       -0.1659
@<TRIPOS>BOND
     1    20    21    1
     2    21    14    1
     3    14    15   ar
     4    15    16   ar
     5    16    17   ar
     6    17     6    1
     7     6     7    1
     8     6     8    1
     9     8     9    1
    10     9    10    1
    11    10     1    1
    12     1     2    1
    13     2     3    1
    14     3     4    1
    15     4    22    1
    16    22    23   am
    17    23    24    2
    18    23    26    1
    19    26    27    1
    20    27    28   am
    21    28    29    2
    22    28    31    1
    23    31    32   ar
    24    32    33   ar
    25    33    34   ar
    26    34    35   ar
    27    35    37    1
    28    37    38    1
    29    37    39    1
    30    37    40    1
    31    35    36   ar
    32     4     5    1
    33    10    11    1
    34    11    12    1
    35    17    18   ar
    36    18    19   ar
    37    19    14   ar
    38    12     6    1
    39     5     1    1
    40    36    31   ar
    41     7    13    1
    42    22    25    1
    43    27    30    1
@<TRIPOS>MOLECULE
*****
 40 43 0 0 0
SMALL
GASTEIGER

@<TRIPOS>ATOM
      1 N         142.0931  140.4023  157.9781 N.3     1  UNL1       -0.2725
      2 C         142.0910  141.7766  157.3771 C.3     1  UNL1        0.0738
      3 C         141.5019  142.7213  158.3823 C.3     1  UNL1        0.0383
      4 C         141.1398  141.9308  159.6046 C.3     1  UNL1        0.0889
      5 C         141.5052  140.4977  159.3548 C.3     1  UNL1        0.0919
      6 C         143.5988  136.6520  155.9988 C.3     1  UNL1        0.1085
      7 O         144.6156  136.2160  154.9859 O.3     1  UNL1       -0.3826
      8 C         142.4959  136.5741  157.0125 C.3     1  UNL1        0.0326
      9 C         141.9940  137.8242  157.6723 C.3     1  UNL1        0.0187
     10 C         142.5949  139.1522  157.3184 C.3     1  UNL1        0.0577
     11 C         143.6978  139.2301  156.3047 C.3     1  UNL1        0.0187
     12 C         144.1997  137.9799  155.6449 C.3     1  UNL1        0.0326
     13 H         144.5720  135.2531  154.8777 H       1  UNL1        0.2107
     14 C         142.8552  132.2138  156.0052 C.ar    1  UNL1        0.2250
     15 C         142.6535  133.0063  154.7477 C.ar    1  UNL1        0.0575
     16 C         142.9013  134.4857  154.7456 C.ar    1  UNL1        0.0043
     17 C         143.3509  135.1726  156.0010 C.ar    1  UNL1        0.0211
     18 C         143.5527  134.3802  157.2584 C.ar    1  UNL1        0.1000
     19 N         143.3048  132.9008  157.2606 N.ar    1  UNL1       -0.2104
     20 C         143.2199  129.8729  157.0715 C.3     1  UNL1        0.2542
     21 O         142.6074  130.7345  156.0074 O.3     1  UNL1       -0.4561
     22 N         140.5209  142.4775  160.8568 N.am    1  UNL1       -0.3032
     23 C         139.0797  142.8932  160.8614 C.2     1  UNL1        0.2425
     24 O         138.2573  142.7622  159.6139 O.2     1  UNL1       -0.2733
     25 H         141.0607  142.5636  161.6757 H       1  UNL1        0.1495
     26 C         138.4608  143.4400  162.1137 C.3     1  UNL1        0.1759
     27 N         138.4072  142.5975  163.3535 N.am    1  UNL1       -0.2931
     28 C         139.6193  142.4721  164.2281 C.2     1  UNL1        0.2462
     29 O         140.8851  143.1894  163.8629 O.2     1  UNL1       -0.2701
     30 H         137.5764  142.1267  163.5932 H       1  UNL1        0.1502
     31 C         139.5657  141.6296  165.4679 C.ar    1  UNL1        0.0533
     32 C         140.2343  142.1016  166.7250 C.ar    1  UNL1        0.0045
     33 C         140.1807  141.2591  167.9648 C.ar    1  UNL1        0.0001
     34 C         139.4586  139.9444  167.9477 C.ar    1  UNL1        0.0039
     35 C         138.7900  139.4724  166.6906 C.ar    1  UNL1        0.0716
     36 C         138.8436  140.3150  165.4508 C.ar    1  UNL1        0.0084
     37 C         138.0679  138.1577  166.6734 C.3     1  UNL1        0.4186
     38 F         137.3457  136.8431  166.6562 F       1  UNL1       -0.1659
     39 F         138.9347  137.6964  165.5395 F       1  UNL1       -0.1659
     40 F         137.2010  138.6190  167.8074 F       1  UNL1       -0.1659
@<TRIPOS>BOND
     1    20    21    1
     2    21    14    1
     3    14    15   ar
     4    15    16   ar
     5    16    17   ar
     6    17     6    1
     7     6     7    1
     8     6     8    1
     9     8     9    1
    10     9    10    1
    11    10     1    1
    12     1     2    1
    13     2     3    1
    14     3     4    1
    15     4    22    1
    16    22    23   am
    17    23    24    2
    18    23    26    1
    19    26    27    1
    20    27    28   am
    21    28    29    2
    22    28    31    1
    23    31    32   ar
    24    32    33   ar
    25    33    34   ar
    26    34    35   ar
    27    35    37    1
    28    37    38    1
    29    37    39    1
    30    37    40    1
    31    35    36   ar
    32     4     5    1
    33    10    11    1
    34    11    12    1
    35    17    18   ar
    36    18    19   ar
    37    19    14   ar
    38    12     6    1
    39     5     1    1
    40    36    31   ar
    41     7    13    1
    42    22    25    1
    43    27    30    1
@<TRIPOS>MOLECULE
*****
 40 43 0 0 0
SMALL
GASTEIGER

@<TRIPOS>ATOM
      1 N         140.1721  139.8564  159.7788 N.3     1  UNL1       -0.2725
      2 C         140.5909  140.8857  158.7712 C.3     1  UNL1        0.0738
      3 C         141.0973  140.1661  157.5564 C.3     1  UNL1        0.0383
      4 C         140.9915  138.6920  157.8132 C.3     1  UNL1        0.0889
      5 C         140.4198  138.5006  159.1866 C.3     1  UNL1        0.0919
      6 C         138.4715  140.6894  163.8609 C.3     1  UNL1        0.1085
      7 O         137.2972  141.3700  164.4995 O.3     1  UNL1       -0.3826
      8 C         139.7521  139.9203  163.7246 C.3     1  UNL1        0.0326
      9 C         140.3190  139.6426  162.3638 C.3     1  UNL1        0.0187
     10 C         139.6053  140.1341  161.1395 C.3     1  UNL1        0.0577
     11 C         138.3248  140.9032  161.2758 C.3     1  UNL1        0.0187
     12 C         137.7579  141.1809  162.6365 C.3     1  UNL1        0.0326
     13 H         137.3597  141.2855  165.4638 H       1  UNL1        0.2107
     14 C         139.3890  139.9240  168.1994 C.ar    1  UNL1        0.2250
     15 C         140.0216  141.0861  167.4927 C.ar    1  UNL1        0.0575
     16 C         139.7158  141.3412  166.0465 C.ar    1  UNL1        0.0043
     17 C         138.7774  140.4343  165.3070 C.ar    1  UNL1        0.0211
     18 C         138.1448  139.2723  166.0137 C.ar    1  UNL1        0.1000
     19 N         138.4506  139.0171  167.4599 N.ar    1  UNL1       -0.2104
     20 C         141.1013  139.8025  170.1496 C.3     1  UNL1        0.2542
     21 O         139.6948  139.6689  169.6455 O.3     1  UNL1       -0.4561
     22 N         141.3879  137.6009  156.8633 N.am    1  UNL1       -0.3032
     23 C         140.3424  136.9016  156.0460 C.2     1  UNL1        0.2425
     24 O         138.9006  137.2933  156.1786 O.2     1  UNL1       -0.2733
     25 H         142.3342  137.3438  156.7762 H       1  UNL1        0.1495
     26 C         140.7388  135.8105  155.0960 C.3     1  UNL1        0.1759
     27 N         141.3060  134.5260  155.6237 N.am    1  UNL1       -0.2931
     28 C         142.7504  134.4513  156.0213 C.2     1  UNL1        0.2462
     29 O         143.6276  135.6611  155.8913 O.2     1  UNL1       -0.2701
     30 H         140.7302  133.7320  155.7091 H       1  UNL1        0.1502
     31 C         143.3175  133.1668  156.5490 C.ar    1  UNL1        0.0533
     32 C         144.4687  133.1943  157.5103 C.ar    1  UNL1        0.0045
     33 C         145.0359  131.9098  158.0380 C.ar    1  UNL1        0.0001
     34 C         144.4520  130.5979  157.6045 C.ar    1  UNL1        0.0039
     35 C         143.3008  130.5705  156.6432 C.ar    1  UNL1        0.0716
     36 C         142.7336  131.8550  156.1155 C.ar    1  UNL1        0.0084
     37 C         142.7168  129.2586  156.2096 C.3     1  UNL1        0.4186
     38 F         142.1328  127.9468  155.7760 F       1  UNL1       -0.1659
     39 F         141.5187  129.9739  155.6592 F       1  UNL1       -0.1659
     40 F         143.9149  128.5433  156.7600 F       1  UNL1       -0.1659
@<TRIPOS>BOND
     1    20    21    1
     2    21    14    1
     3    14    15   ar
     4    15    16   ar
     5    16    17   ar
     6    17     6    1
     7     6     7    1
     8     6     8    1
     9     8     9    1
    10     9    10    1
    11    10     1    1
    12     1     2    1
    13     2     3    1
    14     3     4    1
    15     4    22    1
    16    22    23   am
    17    23    24    2
    18    23    26    1
    19    26    27    1
    20    27    28   am
    21    28    29    2
    22    28    31    1
    23    31    32   ar
    24    32    33   ar
    25    33    34   ar
    26    34    35   ar
    27    35    37    1
    28    37    38    1
    29    37    39    1
    30    37    40    1
    31    35    36   ar
    32     4     5    1
    33    10    11    1
    34    11    12    1
    35    17    18   ar
    36    18    19   ar
    37    19    14   ar
    38    12     6    1
    39     5     1    1
    40    36    31   ar
    41     7    13    1
    42    22    25    1
    43    27    30    1
@<TRIPOS>MOLECULE
*****
 40 43 0 0 0
SMALL
GASTEIGER

@<TRIPOS>ATOM
      1 N         138.9624  139.8694  160.6412 N.3     1  UNL1       -0.2725
      2 C         140.1352  140.4033  159.8735 C.3     1  UNL1        0.0738
      3 C         139.6741  140.7165  158.4810 C.3     1  UNL1        0.0383
      4 C         138.2161  140.3763  158.3880 C.3     1  UNL1        0.0889
      5 C         137.7763  139.8527  159.7230 C.3     1  UNL1        0.0919
      6 C         138.9958  138.5494  164.9431 C.3     1  UNL1        0.1085
      7 O         138.8943  137.2964  165.7614 O.3     1  UNL1       -0.3826
      8 C         139.1384  140.0035  164.6037 C.3     1  UNL1        0.0326
      9 C         139.1273  140.4436  163.1697 C.3     1  UNL1        0.0187
     10 C         138.9735  139.4295  162.0752 C.3     1  UNL1        0.0577
     11 C         138.8309  137.9754  162.4146 C.3     1  UNL1        0.0187
     12 C         138.8420  137.5354  163.8486 C.3     1  UNL1        0.0326
     13 H         138.9567  137.5194  166.7033 H       1  UNL1        0.2107
     14 C         139.3513  140.2862  169.0792 C.ar    1  UNL1        0.2250
     15 C         140.4123  140.5631  168.0557 C.ar    1  UNL1        0.0575
     16 C         140.2938  139.9842  166.6770 C.ar    1  UNL1        0.0043
     17 C         139.1143  139.1283  166.3218 C.ar    1  UNL1        0.0211
     18 C         138.0533  138.8514  167.3453 C.ar    1  UNL1        0.1000
     19 N         138.1718  139.4303  168.7240 N.ar    1  UNL1       -0.2104
     20 C         140.7891  140.8397  171.1712 C.3     1  UNL1        0.2542
     21 O         139.4698  140.8651  170.4579 O.3     1  UNL1       -0.4561
     22 N         137.3501  140.5321  157.1733 N.am    1  UNL1       -0.3032
     23 C         137.0923  141.8966  156.6061 C.2     1  UNL1        0.2425
     24 O         137.7005  143.1052  157.2537 O.2     1  UNL1       -0.2733
     25 H         136.9509  139.7389  156.7482 H       1  UNL1        0.1495
     26 C         136.2263  142.0526  155.3912 C.3     1  UNL1        0.1759
     27 N         134.7330  141.9986  155.5227 N.am    1  UNL1       -0.2931
     28 C         134.0498  140.6886  155.7812 C.2     1  UNL1        0.2462
     29 O         134.8597  139.4324  155.9081 O.2     1  UNL1       -0.2701
     30 H         134.2014  142.8230  155.4394 H       1  UNL1        0.1502
     31 C         132.5565  140.6346  155.9126 C.ar    1  UNL1        0.0533
     32 C         131.9133  139.5429  156.7155 C.ar    1  UNL1        0.0045
     33 C         130.4201  139.4889  156.8470 C.ar    1  UNL1        0.0001
     34 C         129.5699  140.5266  156.1757 C.ar    1  UNL1        0.0039
     35 C         130.2132  141.6182  155.3728 C.ar    1  UNL1        0.0716
     36 C         131.7065  141.6722  155.2414 C.ar    1  UNL1        0.0084
     37 C         129.3632  142.6560  154.7015 C.3     1  UNL1        0.4186
     38 F         128.5132  143.6936  154.0302 F       1  UNL1       -0.1659
     39 F         128.6388  141.5775  153.9517 F       1  UNL1       -0.1659
     40 F         130.0876  143.7345  155.4513 F       1  UNL1       -0.1659
@<TRIPOS>BOND
     1    20    21    1
     2    21    14    1
     3    14    15   ar
     4    15    16   ar
     5    16    17   ar
     6    17     6    1
     7     6     7    1
     8     6     8    1
     9     8     9    1
    10     9    10    1
    11    10     1    1
    12     1     2    1
    13     2     3    1
    14     3     4    1
    15     4    22    1
    16    22    23   am
    17    23    24    2
    18    23    26    1
    19    26    27    1
    20    27    28   am
    21    28    29    2
    22    28    31    1
    23    31    32   ar
    24    32    33   ar
    25    33    34   ar
    26    34    35   ar
    27    35    37    1
    28    37    38    1
    29    37    39    1
    30    37    40    1
    31    35    36   ar
    32     4     5    1
    33    10    11    1
    34    11    12    1
    35    17    18   ar
    36    18    19   ar
    37    19    14   ar
    38    12     6    1
    39     5     1    1
    40    36    31   ar
    41     7    13    1
    42    22    25    1
    43    27    30    1
@<TRIPOS>MOLECULE
*****
 40 43 0 0 0
SMALL
GASTEIGER

@<TRIPOS>ATOM
      1 N         139.9675  140.7714  158.3784 N.3     1  UNL1       -0.2725
      2 C         138.8498  141.4734  157.6657 C.3     1  UNL1        0.0738
      3 C         138.3046  142.5275  158.5830 C.3     1  UNL1        0.0383
      4 C         139.0854  142.4770  159.8629 C.3     1  UNL1        0.0889
      5 C         140.1130  141.3918  159.7364 C.3     1  UNL1        0.0919
      6 C         142.4484  137.3973  156.7323 C.3     1  UNL1        0.1085
      7 O         143.8412  137.1262  156.2459 O.3     1  UNL1       -0.3826
      8 C         141.0119  137.1640  157.0956 C.3     1  UNL1        0.0326
      9 C         140.1849  138.2887  157.6444 C.3     1  UNL1        0.0187
     10 C         140.7944  139.6467  157.8297 C.3     1  UNL1        0.0577
     11 C         142.2309  139.8800  157.4664 C.3     1  UNL1        0.0187
     12 C         143.0579  138.7553  156.9176 C.3     1  UNL1        0.0326
     13 H         143.9138  136.1980  155.9740 H       1  UNL1        0.2107
     14 C         142.0711  133.0409  155.6694 C.ar    1  UNL1        0.2250
     15 C         143.0848  133.4803  156.6839 C.ar    1  UNL1        0.0575
     16 C         143.2106  134.9325  157.0382 C.ar    1  UNL1        0.0043
     17 C         142.3226  135.9452  156.3780 C.ar    1  UNL1        0.0211
     18 C         141.3089  135.5058  155.3635 C.ar    1  UNL1        0.1000
     19 N         141.1831  134.0536  155.0093 N.ar    1  UNL1       -0.2104
     20 C         141.2438  131.1828  154.0530 C.3     1  UNL1        0.2542
     21 O         141.9453  131.5888  155.3152 O.3     1  UNL1       -0.4561
     22 N         138.8753  143.3573  161.0590 N.am    1  UNL1       -0.3032
     23 C         138.0239  142.8828  162.1992 C.2     1  UNL1        0.2425
     24 O         137.3825  141.5280  162.1431 O.2     1  UNL1       -0.2733
     25 H         139.2963  144.2465  161.0959 H       1  UNL1        0.1495
     26 C         137.8138  143.7631  163.3954 C.3     1  UNL1        0.1759
     27 N         138.5094  143.4516  164.6874 N.am    1  UNL1       -0.2931
     28 C         139.9963  143.2554  164.7103 C.2     1  UNL1        0.2462
     29 O         140.7877  143.3708  163.4412 O.2     1  UNL1       -0.2701
     30 H         137.9900  143.3758  165.5203 H       1  UNL1        0.1502
     31 C         140.6918  142.9438  166.0022 C.ar    1  UNL1        0.0533
     32 C         142.0800  142.3757  165.9885 C.ar    1  UNL1        0.0045
     33 C         142.7756  142.0641  167.2805 C.ar    1  UNL1        0.0001
     34 C         142.0831  142.3206  168.5861 C.ar    1  UNL1        0.0039
     35 C         140.6949  142.8886  168.5997 C.ar    1  UNL1        0.0716
     36 C         139.9993  143.2002  167.3077 C.ar    1  UNL1        0.0084
     37 C         140.0022  143.1451  169.9053 C.3     1  UNL1        0.4186
     38 F         139.3096  143.4016  171.2108 F       1  UNL1       -0.1659
     39 F         139.4672  141.7438  169.8968 F       1  UNL1       -0.1659
     40 F         140.5373  144.5465  169.9138 F       1  UNL1       -0.1659
@<TRIPOS>BOND
     1    20    21    1
     2    21    14    1
     3    14    15   ar
     4    15    16   ar
     5    16    17   ar
     6    17     6    1
     7     6     7    1
     8     6     8    1
     9     8     9    1
    10     9    10    1
    11    10     1    1
    12     1     2    1
    13     2     3    1
    14     3     4    1
    15     4    22    1
    16    22    23   am
    17    23    24    2
    18    23    26    1
    19    26    27    1
    20    27    28   am
    21    28    29    2
    22    28    31    1
    23    31    32   ar
    24    32    33   ar
    25    33    34   ar
    26    34    35   ar
    27    35    37    1
    28    37    38    1
    29    37    39    1
    30    37    40    1
    31    35    36   ar
    32     4     5    1
    33    10    11    1
    34    11    12    1
    35    17    18   ar
    36    18    19   ar
    37    19    14   ar
    38    12     6    1
    39     5     1    1
    40    36    31   ar
    41     7    13    1
    42    22    25    1
    43    27    30    1
@<TRIPOS>MOLECULE
*****
 40 43 0 0 0
SMALL
GASTEIGER

@<TRIPOS>ATOM
      1 N         143.9100  141.5215  160.7827 N.3     1  UNL1       -0.2725
      2 C         144.3839  142.5738  159.8246 C.3     1  UNL1        0.0738
      3 C         144.4182  141.9695  158.4521 C.3     1  UNL1        0.0383
      4 C         143.9653  140.5437  158.5620 C.3     1  UNL1        0.0889
      5 C         143.6513  140.2669  160.0023 C.3     1  UNL1        0.0919
      6 C         143.3607  142.0378  165.2191 C.3     1  UNL1        0.1085
      7 O         143.8926  142.8609  166.3547 O.3     1  UNL1       -0.3826
      8 C         142.5466  141.0205  164.4760 C.3     1  UNL1        0.0326
      9 C         142.7297  140.8484  162.9971 C.3     1  UNL1        0.0187
     10 C         143.7268  141.6936  162.2615 C.3     1  UNL1        0.0577
     11 C         144.5409  142.7109  163.0046 C.3     1  UNL1        0.0187
     12 C         144.3578  142.8830  164.4834 C.3     1  UNL1        0.0326
     13 H         143.4471  142.6035  167.1770 H       1  UNL1        0.2107
     14 C         140.9233  140.3597  168.6092 C.ar    1  UNL1        0.2250
     15 C         140.6093  141.7203  168.0614 C.ar    1  UNL1        0.0575
     16 C         141.4217  142.2797  166.9313 C.ar    1  UNL1        0.0043
     17 C         142.5482  141.4785  166.3491 C.ar    1  UNL1        0.0211
     18 C         142.8623  140.1179  166.8970 C.ar    1  UNL1        0.1000
     19 N         142.0498  139.5585  168.0270 N.ar    1  UNL1       -0.2104
     20 C         138.7441  140.3489  170.0237 C.3     1  UNL1        0.2542
     21 O         140.1109  139.8003  169.7393 O.3     1  UNL1       -0.4561
     22 N         143.8473  139.5664  157.4302 N.am    1  UNL1       -0.3032
     23 C         142.5843  139.5019  156.6237 C.2     1  UNL1        0.2425
     24 O         141.4392  140.4145  156.9490 O.2     1  UNL1       -0.2733
     25 H         144.5989  138.9674  157.2168 H       1  UNL1        0.1495
     26 C         142.4662  138.5245  155.4919 C.3     1  UNL1        0.1759
     27 N         142.8530  137.0898  155.6964 N.am    1  UNL1       -0.2931
     28 C         141.8043  136.0179  155.6607 C.2     1  UNL1        0.2462
     29 O         140.3688  136.3808  155.4205 O.2     1  UNL1       -0.2701
     30 H         143.7951  136.8516  155.8541 H       1  UNL1        0.1502
     31 C         142.1910  134.5831  155.8653 C.ar    1  UNL1        0.0533
     32 C         141.3589  133.4892  155.2646 C.ar    1  UNL1        0.0045
     33 C         141.7456  132.0544  155.4692 C.ar    1  UNL1        0.0001
     34 C         142.9645  131.7135  156.2744 C.ar    1  UNL1        0.0039
     35 C         143.7965  132.8075  156.8750 C.ar    1  UNL1        0.0716
     36 C         143.4098  134.2423  156.6704 C.ar    1  UNL1        0.0084
     37 C         145.0154  132.4668  157.6802 C.3     1  UNL1        0.4186
     38 F         146.2342  132.1260  158.4854 F       1  UNL1       -0.1659
     39 F         145.3825  131.4125  156.6784 F       1  UNL1       -0.1659
     40 F         144.6483  133.5211  158.6821 F       1  UNL1       -0.1659
@<TRIPOS>BOND
     1    20    21    1
     2    21    14    1
     3    14    15   ar
     4    15    16   ar
     5    16    17   ar
     6    17     6    1
     7     6     7    1
     8     6     8    1
     9     8     9    1
    10     9    10    1
    11    10     1    1
    12     1     2    1
    13     2     3    1
    14     3     4    1
    15     4    22    1
    16    22    23   am
    17    23    24    2
    18    23    26    1
    19    26    27    1
    20    27    28   am
    21    28    29    2
    22    28    31    1
    23    31    32   ar
    24    32    33   ar
    25    33    34   ar
    26    34    35   ar
    27    35    37    1
    28    37    38    1
    29    37    39    1
    30    37    40    1
    31    35    36   ar
    32     4     5    1
    33    10    11    1
    34    11    12    1
    35    17    18   ar
    36    18    19   ar
    37    19    14   ar
    38    12     6    1
    39     5     1    1
    40    36    31   ar
    41     7    13    1
    42    22    25    1
    43    27    30    1
@<TRIPOS>MOLECULE
*****
 40 43 0 0 0
SMALL
GASTEIGER

@<TRIPOS>ATOM
      1 N         140.6425  139.7695  160.7042 N.3     1  UNL1       -0.2725
      2 C         141.4494  140.7989  159.9700 C.3     1  UNL1        0.0738
      3 C         141.7749  140.2509  158.6122 C.3     1  UNL1        0.0383
      4 C         141.1691  138.8826  158.5072 C.3     1  UNL1        0.0889
      5 C         140.4693  138.5852  159.8001 C.3     1  UNL1        0.0919
      6 C         139.0252  140.1644  164.8848 C.3     1  UNL1        0.1085
      7 O         137.7699  139.8970  165.6613 O.3     1  UNL1       -0.3826
      8 C         140.4295  140.5947  164.5802 C.3     1  UNL1        0.0326
      9 C         140.9686  140.4631  163.1867 C.3     1  UNL1        0.0187
     10 C         140.1035  139.9012  162.0977 C.3     1  UNL1        0.0577
     11 C         138.6992  139.4709  162.4023 C.3     1  UNL1        0.0187
     12 C         138.1600  139.6025  163.7959 C.3     1  UNL1        0.0326
     13 H         137.9001  140.1585  166.5863 H       1  UNL1        0.2107
     14 C         140.3128  141.5715  168.9606 C.ar    1  UNL1        0.2250
     15 C         139.6825  140.2202  168.7983 C.ar    1  UNL1        0.0575
     16 C         139.2532  139.7511  167.4397 C.ar    1  UNL1        0.0043
     17 C         139.4544  140.6334  166.2434 C.ar    1  UNL1        0.0211
     18 C         140.0847  141.9848  166.4058 C.ar    1  UNL1        0.1000
     19 N         140.5140  142.4539  167.7644 N.ar    1  UNL1       -0.2104
     20 C         141.8233  141.3093  171.0581 C.3     1  UNL1        0.2542
     21 O         140.7421  142.0406  170.3192 O.3     1  UNL1       -0.4561
     22 N         141.2492  137.9719  157.3181 N.am    1  UNL1       -0.3032
     23 C         140.0919  137.8744  156.3688 C.2     1  UNL1        0.2425
     24 O         138.8545  138.6877  156.6086 O.2     1  UNL1       -0.2733
     25 H         142.0613  137.4381  157.1606 H       1  UNL1        0.1495
     26 C         140.1719  136.9636  155.1796 C.3     1  UNL1        0.1759
     27 N         140.5037  135.5128  155.3670 N.am    1  UNL1       -0.2931
     28 C         141.9126  135.0993  155.6736 C.2     1  UNL1        0.2462
     29 O         142.9897  136.1365  155.7929 O.2     1  UNL1       -0.2701
     30 H         139.7969  134.8321  155.2887 H       1  UNL1        0.1502
     31 C         142.2445  133.6485  155.8610 C.ar    1  UNL1        0.0533
     32 C         141.4406  132.5979  155.1539 C.ar    1  UNL1        0.0045
     33 C         141.7725  131.1471  155.3413 C.ar    1  UNL1        0.0001
     34 C         142.9081  130.7469  156.2358 C.ar    1  UNL1        0.0039
     35 C         143.7119  131.7976  156.9429 C.ar    1  UNL1        0.0716
     36 C         143.3800  133.2484  156.7555 C.ar    1  UNL1        0.0084
     37 C         144.8476  131.3974  157.8375 C.3     1  UNL1        0.4186
     38 F         145.9832  130.9973  158.7320 F       1  UNL1       -0.1659
     39 F         145.0934  132.8392  158.1704 F       1  UNL1       -0.1659
     40 F         144.6018  129.9556  157.5047 F       1  UNL1       -0.1659
@<TRIPOS>BOND
     1    20    21    1
     2    21    14    1
     3    14    15   ar
     4    15    16   ar
     5    16    17   ar
     6    17     6    1
     7     6     7    1
     8     6     8    1
     9     8     9    1
    10     9    10    1
    11    10     1    1
    12     1     2    1
    13     2     3    1
    14     3     4    1
    15     4    22    1
    16    22    23   am
    17    23    24    2
    18    23    26    1
    19    26    27    1
    20    27    28   am
    21    28    29    2
    22    28    31    1
    23    31    32   ar
    24    32    33   ar
    25    33    34   ar
    26    34    35   ar
    27    35    37    1
    28    37    38    1
    29    37    39    1
    30    37    40    1
    31    35    36   ar
    32     4     5    1
    33    10    11    1
    34    11    12    1
    35    17    18   ar
    36    18    19   ar
    37    19    14   ar
    38    12     6    1
    39     5     1    1
    40    36    31   ar
    41     7    13    1
    42    22    25    1
    43    27    30    1
@<TRIPOS>MOLECULE
*****
 40 43 0 0 0
SMALL
GASTEIGER

@<TRIPOS>ATOM
      1 N         143.6208  140.7123  161.6059 N.3     1  UNL1       -0.2725
      2 C         143.6423  142.0835  160.9982 C.3     1  UNL1        0.0738
      3 C         143.9579  141.9390  159.5390 C.3     1  UNL1        0.0383
      4 C         144.1315  140.4784  159.2448 C.3     1  UNL1        0.0889
      5 C         143.9231  139.7203  160.5221 C.3     1  UNL1        0.0919
      6 C         142.7946  139.7442  165.9222 C.3     1  UNL1        0.1085
      7 O         143.2355  138.7874  166.9899 O.3     1  UNL1       -0.3826
      8 C         142.0540  140.8616  165.2491 C.3     1  UNL1        0.0326
      9 C         142.3294  141.1843  163.8104 C.3     1  UNL1        0.0187
     10 C         143.3453  140.3897  163.0447 C.3     1  UNL1        0.0577
     11 C         144.0859  139.2723  163.7177 C.3     1  UNL1        0.0187
     12 C         143.8105  138.9496  165.1565 C.3     1  UNL1        0.0326
     13 H         142.7490  138.9703  167.8089 H       1  UNL1        0.2107
     14 C         140.2061  141.1313  169.3318 C.ar    1  UNL1        0.2250
     15 C         141.6805  141.4064  169.3494 C.ar    1  UNL1        0.0575
     16 C         142.5433  140.9441  168.2128 C.ar    1  UNL1        0.0043
     17 C         141.9318  140.2066  167.0587 C.ar    1  UNL1        0.0211
     18 C         140.4573  139.9314  167.0411 C.ar    1  UNL1        0.1000
     19 N         139.5945  140.3938  168.1777 N.ar    1  UNL1       -0.2104
     20 C         139.5162  142.9746  171.0277 C.3     1  UNL1        0.2542
     21 O         139.3432  141.5937  170.4683 O.3     1  UNL1       -0.4561
     22 N         144.4564  139.8809  157.9078 N.am    1  UNL1       -0.3032
     23 C         143.3506  139.4622  156.9848 C.2     1  UNL1        0.2425
     24 O         141.9200  139.6410  157.3987 O.2     1  UNL1       -0.2733
     25 H         145.3953  139.7635  157.6362 H       1  UNL1        0.1495
     26 C         143.6755  138.8646  155.6478 C.3     1  UNL1        0.1759
     27 N         143.9459  137.3940  155.5293 N.am    1  UNL1       -0.2931
     28 C         142.8034  136.4255  155.4478 C.2     1  UNL1        0.2462
     29 O         141.3904  136.9276  155.4849 O.2     1  UNL1       -0.2701
     30 H         144.8733  137.0644  155.5050 H       1  UNL1        0.1502
     31 C         143.0738  134.9549  155.3293 C.ar    1  UNL1        0.0533
     32 C         142.5261  134.1830  154.1656 C.ar    1  UNL1        0.0045
     33 C         142.7966  132.7124  154.0471 C.ar    1  UNL1        0.0001
     34 C         143.6146  132.0135  155.0923 C.ar    1  UNL1        0.0039
     35 C         144.1623  132.7854  156.2560 C.ar    1  UNL1        0.0716
     36 C         143.8918  134.2561  156.3745 C.ar    1  UNL1        0.0084
     37 C         144.9804  132.0866  157.3012 C.3     1  UNL1        0.4186
     38 F         145.7984  131.3878  158.3464 F       1  UNL1       -0.1659
     39 F         144.6909  133.1954  158.2691 F       1  UNL1       -0.1659
     40 F         145.2698  130.9778  156.3334 F       1  UNL1       -0.1659
@<TRIPOS>BOND
     1    20    21    1
     2    21    14    1
     3    14    15   ar
     4    15    16   ar
     5    16    17   ar
     6    17     6    1
     7     6     7    1
     8     6     8    1
     9     8     9    1
    10     9    10    1
    11    10     1    1
    12     1     2    1
    13     2     3    1
    14     3     4    1
    15     4    22    1
    16    22    23   am
    17    23    24    2
    18    23    26    1
    19    26    27    1
    20    27    28   am
    21    28    29    2
    22    28    31    1
    23    31    32   ar
    24    32    33   ar
    25    33    34   ar
    26    34    35   ar
    27    35    37    1
    28    37    38    1
    29    37    39    1
    30    37    40    1
    31    35    36   ar
    32     4     5    1
    33    10    11    1
    34    11    12    1
    35    17    18   ar
    36    18    19   ar
    37    19    14   ar
    38    12     6    1
    39     5     1    1
    40    36    31   ar
    41     7    13    1
    42    22    25    1
    43    27    30    1
@<TRIPOS>MOLECULE
*****
 40 43 0 0 0
SMALL
GASTEIGER

@<TRIPOS>ATOM
      1 N         139.8429  139.1335  159.2934 N.3     1  UNL1       -0.2725
      2 C         140.6214  138.5585  158.1475 C.3     1  UNL1        0.0738
      3 C         140.0370  139.0948  156.8744 C.3     1  UNL1        0.0383
      4 C         138.8971  140.0014  157.2336 C.3     1  UNL1        0.0889
      5 C         138.7772  140.0253  158.7285 C.3     1  UNL1        0.0919
      6 C         140.5756  138.3252  163.6591 C.3     1  UNL1        0.1085
      7 O         141.4964  137.5375  164.5432 O.3     1  UNL1       -0.3826
      8 C         139.4649  139.2432  163.2425 C.3     1  UNL1        0.0326
      9 C         139.2206  139.5126  161.7872 C.3     1  UNL1        0.0187
     10 C         140.0871  138.8641  160.7486 C.3     1  UNL1        0.0577
     11 C         141.1978  137.9461  161.1653 C.3     1  UNL1        0.0187
     12 C         141.4420  137.6767  162.6206 C.3     1  UNL1        0.0326
     13 H         141.2574  137.6845  165.4717 H       1  UNL1        0.2107
     14 C         138.9355  139.4501  167.6958 C.ar    1  UNL1        0.2250
     15 C         138.0879  138.6746  166.7315 C.ar    1  UNL1        0.0575
     16 C         138.6346  138.2996  165.3859 C.ar    1  UNL1        0.0043
     17 C         140.0289  138.7002  165.0047 C.ar    1  UNL1        0.0211
     18 C         140.8765  139.4757  165.9690 C.ar    1  UNL1        0.1000
     19 N         140.3298  139.8507  167.3146 N.ar    1  UNL1       -0.2104
     20 C         139.2497  140.5669  170.0205 C.3     1  UNL1        0.2542
     21 O         138.3888  139.8251  169.0414 O.3     1  UNL1       -0.4561
     22 N         138.0296  140.7522  156.2673 N.am    1  UNL1       -0.3032
     23 C         137.2307  140.0058  155.2404 C.2     1  UNL1        0.2425
     24 O         137.2993  138.5086  155.1797 O.2     1  UNL1       -0.2733
     25 H         137.9846  141.7349  156.3072 H       1  UNL1        0.1495
     26 C         136.3631  140.7566  154.2741 C.3     1  UNL1        0.1759
     27 N         134.8712  140.7272  154.4265 N.am    1  UNL1       -0.2931
     28 C         134.2595  140.5112  155.7789 C.2     1  UNL1        0.2462
     29 O         135.1398  140.3246  156.9791 O.2     1  UNL1       -0.2701
     30 H         134.2934  140.8497  153.6388 H       1  UNL1        0.1502
     31 C         132.7676  140.4818  155.9313 C.ar    1  UNL1        0.0533
     32 C         131.9274  141.5480  155.2931 C.ar    1  UNL1        0.0045
     33 C         130.4354  141.5186  155.4455 C.ar    1  UNL1        0.0001
     34 C         129.7836  140.4231  156.2361 C.ar    1  UNL1        0.0039
     35 C         130.6239  139.3569  156.8742 C.ar    1  UNL1        0.0716
     36 C         132.1158  139.3863  156.7219 C.ar    1  UNL1        0.0084
     37 C         129.9721  138.2613  157.6649 C.3     1  UNL1        0.4186
     38 F         129.3204  137.1658  158.4554 F       1  UNL1       -0.1659
     39 F         130.1917  137.3093  156.5267 F       1  UNL1       -0.1659
     40 F         129.7525  139.2134  158.8031 F       1  UNL1       -0.1659
@<TRIPOS>BOND
     1    20    21    1
     2    21    14    1
     3    14    15   ar
     4    15    16   ar
     5    16    17   ar
     6    17     6    1
     7     6     7    1
     8     6     8    1
     9     8     9    1
    10     9    10    1
    11    10     1    1
    12     1     2    1
    13     2     3    1
    14     3     4    1
    15     4    22    1
    16    22    23   am
    17    23    24    2
    18    23    26    1
    19    26    27    1
    20    27    28   am
    21    28    29    2
    22    28    31    1
    23    31    32   ar
    24    32    33   ar
    25    33    34   ar
    26    34    35   ar
    27    35    37    1
    28    37    38    1
    29    37    39    1
    30    37    40    1
    31    35    36   ar
    32     4     5    1
    33    10    11    1
    34    11    12    1
    35    17    18   ar
    36    18    19   ar
    37    19    14   ar
    38    12     6    1
    39     5     1    1
    40    36    31   ar
    41     7    13    1
    42    22    25    1
    43    27    30    1
