@<TRIPOS>MOLECULE
*****
 23 25 0 0 0
SMALL
GASTEIGER

@<TRIPOS>ATOM
      1 N         141.3300  141.9663  166.0849 N.pl3   1  UNL1       -0.2759
      2 C         141.6211  142.3524  167.5048 C.ar    1  UNL1        0.0551
      3 C         142.9832  142.1091  168.0840 C.ar    1  UNL1        0.0150
      4 C         143.2744  142.4953  169.5039 C.ar    1  UNL1        0.0044
      5 C         142.2034  143.1247  170.3446 C.ar    1  UNL1        0.0367
      6 C         140.8413  143.3680  169.7655 C.ar    1  UNL1        0.1349
      7 O         139.7703  143.9975  170.6063 O.3     1  UNL1       -0.5055
      8 C         140.5501  142.9819  168.3456 C.ar    1  UNL1        0.0514
      9 H         139.9522  144.2386  171.4933 H       1  UNL1        0.2922
     10 C         139.8447  146.1757  162.0756 C.3     1  UNL1        0.0310
     11 C         140.2160  145.1234  163.0779 C.ar    1  UNL1       -0.0218
     12 C         141.6600  144.8470  163.3752 C.ar    1  UNL1       -0.0030
     13 C         142.0313  143.7947  164.3775 C.ar    1  UNL1        0.0145
     14 C         140.9586  143.0187  165.0826 C.ar    1  UNL1        0.0520
     15 C         139.5146  143.2950  164.7853 C.ar    1  UNL1        0.0145
     16 C         139.1433  144.3474  163.7830 C.ar    1  UNL1       -0.0030
     17 C         141.4101  140.5279  165.6674 C.3     1  UNL1        0.2131
     18 C         140.2056  139.6426  165.7918 C.2     1  UNL1        0.3125
     19 N         139.9381  138.4006  164.9944 N.2     1  UNL1       -0.0634
     20 C         138.6243  137.8342  165.4452 C.3     1  UNL1        0.3130
     21 C         138.0799  138.7261  166.5214 C.3     1  UNL1        0.2575
     22 N         139.0572  139.8438  166.7357 N.pl3   1  UNL1       -0.2175
     23 H         138.9617  140.5801  167.3822 H       1  UNL1        0.2921
@<TRIPOS>BOND
     1    10    11    1
     2    11    12   ar
     3    12    13   ar
     4    13    14   ar
     5    14     1    1
     6     1    17    1
     7    17    18    1
     8    18    19    2
     9    19    20    1
    10    20    21    1
    11    21    22    1
    12     1     2    1
    13     2     3   ar
    14     3     4   ar
    15     4     5   ar
    16     5     6   ar
    17     6     7    1
    18     6     8   ar
    19    14    15   ar
    20    15    16   ar
    21    16    11   ar
    22    22    18    1
    23     8     2   ar
    24    22    23    1
    25     7     9    1
@<TRIPOS>MOLECULE
*****
 23 25 0 0 0
SMALL
GASTEIGER

@<TRIPOS>ATOM
      1 N         141.0463  139.7843  166.4979 N.pl3   1  UNL1       -0.2759
      2 C         140.9704  139.9398  167.9878 C.ar    1  UNL1        0.0551
      3 C         139.6671  140.2964  168.6393 C.ar    1  UNL1        0.0150
      4 C         139.5912  140.4518  170.1293 C.ar    1  UNL1        0.0044
      5 C         140.8186  140.2507  170.9678 C.ar    1  UNL1        0.0367
      6 C         142.1219  139.8942  170.3164 C.ar    1  UNL1        0.1349
      7 O         143.3492  139.6931  171.1550 O.3     1  UNL1       -0.5055
      8 C         142.1978  139.7387  168.8264 C.ar    1  UNL1        0.0514
      9 H         143.3018  139.7902  172.0857 H       1  UNL1        0.2922
     10 C         145.9134  141.6565  163.5303 C.3     1  UNL1        0.0310
     11 C         144.6966  141.1884  164.2722 C.ar    1  UNL1       -0.0218
     12 C         144.4258  139.7204  164.4182 C.ar    1  UNL1       -0.0030
     13 C         143.2090  139.2523  165.1601 C.ar    1  UNL1        0.0145
     14 C         142.2631  140.2524  165.7560 C.ar    1  UNL1        0.0520
     15 C         142.5340  141.7204  165.6100 C.ar    1  UNL1        0.0145
     16 C         143.7507  142.1885  164.8681 C.ar    1  UNL1       -0.0030
     17 C         139.9055  139.1608  165.7498 C.3     1  UNL1        0.2131
     18 C         139.0376  140.0059  164.8651 C.2     1  UNL1        0.3125
     19 N         138.6505  141.4336  165.1137 N.2     1  UNL1       -0.0634
     20 C         137.7782  141.8817  163.9787 C.3     1  UNL1        0.3130
     21 C         137.6262  140.7310  163.0286 C.3     1  UNL1        0.2575
     22 N         138.4046  139.5716  163.5764 N.pl3   1  UNL1       -0.2175
     23 H         138.4857  138.6819  163.1628 H       1  UNL1        0.2921
@<TRIPOS>BOND
     1    10    11    1
     2    11    12   ar
     3    12    13   ar
     4    13    14   ar
     5    14     1    1
     6     1    17    1
     7    17    18    1
     8    18    19    2
     9    19    20    1
    10    20    21    1
    11    21    22    1
    12     1     2    1
    13     2     3   ar
    14     3     4   ar
    15     4     5   ar
    16     5     6   ar
    17     6     7    1
    18     6     8   ar
    19    14    15   ar
    20    15    16   ar
    21    16    11   ar
    22    22    18    1
    23     8     2   ar
    24    22    23    1
    25     7     9    1
@<TRIPOS>MOLECULE
*****
 23 25 0 0 0
SMALL
GASTEIGER

@<TRIPOS>ATOM
      1 N         140.4631  141.3459  166.4292 N.pl3   1  UNL1       -0.2759
      2 C         140.3540  141.5913  167.9049 C.ar    1  UNL1        0.0551
      3 C         140.4804  142.9850  168.4449 C.ar    1  UNL1        0.0150
      4 C         140.3713  143.2304  169.9207 C.ar    1  UNL1        0.0044
      5 C         140.1358  142.0820  170.8565 C.ar    1  UNL1        0.0367
      6 C         140.0094  140.6883  170.3166 C.ar    1  UNL1        0.1349
      7 O         139.7739  139.5399  171.2525 O.3     1  UNL1       -0.5055
      8 C         140.1185  140.4429  168.8408 C.ar    1  UNL1        0.0514
      9 H         139.7058  139.6932  172.1743 H       1  UNL1        0.2922
     10 C         145.8210  141.5727  163.7382 C.3     1  UNL1        0.0310
     11 C         144.4815  141.5160  164.4110 C.ar    1  UNL1       -0.0218
     12 C         143.8883  140.1916  164.7904 C.ar    1  UNL1       -0.0030
     13 C         142.5488  140.1349  165.4631 C.ar    1  UNL1        0.0145
     14 C         141.8026  141.4026  165.7565 C.ar    1  UNL1        0.0520
     15 C         142.3958  142.7270  165.3770 C.ar    1  UNL1        0.0145
     16 C         143.7353  142.7837  164.7043 C.ar    1  UNL1       -0.0030
     17 C         139.2327  141.0438  165.6262 C.3     1  UNL1        0.2131
     18 C         138.7155  142.0485  164.6398 C.2     1  UNL1        0.3125
     19 N         138.5603  143.5209  164.8801 N.2     1  UNL1       -0.0634
     20 C         138.0115  144.1396  163.6286 C.3     1  UNL1        0.3130
     21 C         137.8275  143.0495  162.6148 C.3     1  UNL1        0.2575
     22 N         138.2626  141.7570  163.2397 N.pl3   1  UNL1       -0.2175
     23 H         138.2527  140.8728  162.8069 H       1  UNL1        0.2921
@<TRIPOS>BOND
     1    10    11    1
     2    11    12   ar
     3    12    13   ar
     4    13    14   ar
     5    14     1    1
     6     1    17    1
     7    17    18    1
     8    18    19    2
     9    19    20    1
    10    20    21    1
    11    21    22    1
    12     1     2    1
    13     2     3   ar
    14     3     4   ar
    15     4     5   ar
    16     5     6   ar
    17     6     7    1
    18     6     8   ar
    19    14    15   ar
    20    15    16   ar
    21    16    11   ar
    22    22    18    1
    23     8     2   ar
    24    22    23    1
    25     7     9    1
@<TRIPOS>MOLECULE
*****
 23 25 0 0 0
SMALL
GASTEIGER

@<TRIPOS>ATOM
      1 N         140.1998  141.6428  166.5854 N.pl3   1  UNL1       -0.2759
      2 C         140.2517  141.7308  168.0819 C.ar    1  UNL1        0.0551
      3 C         140.5675  143.0382  168.7458 C.ar    1  UNL1        0.0150
      4 C         140.6195  143.1262  170.2424 C.ar    1  UNL1        0.0044
      5 C         140.3556  141.9067  171.0750 C.ar    1  UNL1        0.0367
      6 C         140.0397  140.5993  170.4111 C.ar    1  UNL1        0.1349
      7 O         139.7758  139.3797  171.2437 O.3     1  UNL1       -0.5055
      8 C         139.9878  140.5113  168.9146 C.ar    1  UNL1        0.0514
      9 H         139.8083  139.4347  172.1785 H       1  UNL1        0.2922
     10 C         143.7946  145.1002  163.2503 C.3     1  UNL1        0.0310
     11 C         142.8959  144.2359  164.0841 C.ar    1  UNL1       -0.0218
     12 C         141.4160  144.4804  164.0918 C.ar    1  UNL1       -0.0030
     13 C         140.5173  143.6161  164.9255 C.ar    1  UNL1        0.0145
     14 C         141.0985  142.5071  165.7517 C.ar    1  UNL1        0.0520
     15 C         142.5784  142.2626  165.7440 C.ar    1  UNL1        0.0145
     16 C         143.4771  143.1270  164.9102 C.ar    1  UNL1       -0.0030
     17 C         139.2491  140.6904  165.9227 C.3     1  UNL1        0.2131
     18 C         139.7748  139.4773  165.2144 C.2     1  UNL1        0.3125
     19 N         139.1295  138.7880  164.0488 N.2     1  UNL1       -0.0634
     20 C         139.9941  137.6251  163.6613 C.3     1  UNL1        0.3130
     21 C         141.1737  137.5956  164.5873 C.3     1  UNL1        0.2575
     22 N         141.0383  138.7403  165.5472 N.pl3   1  UNL1       -0.2175
     23 H         141.6680  138.9679  166.2690 H       1  UNL1        0.2921
@<TRIPOS>BOND
     1    10    11    1
     2    11    12   ar
     3    12    13   ar
     4    13    14   ar
     5    14     1    1
     6     1    17    1
     7    17    18    1
     8    18    19    2
     9    19    20    1
    10    20    21    1
    11    21    22    1
    12     1     2    1
    13     2     3   ar
    14     3     4   ar
    15     4     5   ar
    16     5     6   ar
    17     6     7    1
    18     6     8   ar
    19    14    15   ar
    20    15    16   ar
    21    16    11   ar
    22    22    18    1
    23     8     2   ar
    24    22    23    1
    25     7     9    1
@<TRIPOS>MOLECULE
*****
 23 25 0 0 0
SMALL
GASTEIGER

@<TRIPOS>ATOM
      1 N         139.2248  140.4631  165.6806 N.pl3   1  UNL1       -0.2759
      2 C         139.0674  141.8584  165.1533 C.ar    1  UNL1        0.0551
      3 C         139.7253  143.0061  165.8603 C.ar    1  UNL1        0.0150
      4 C         139.5678  144.4015  165.3329 C.ar    1  UNL1        0.0044
      5 C         138.7525  144.6492  164.0984 C.ar    1  UNL1        0.0367
      6 C         138.0946  143.5015  163.3914 C.ar    1  UNL1        0.1349
      7 O         137.2792  143.7492  162.1569 O.3     1  UNL1       -0.5055
      8 C         138.2520  142.1061  163.9188 C.ar    1  UNL1        0.0514
      9 H         137.1809  144.6208  161.8275 H       1  UNL1        0.2922
     10 C         142.8054  139.4183  170.3804 C.3     1  UNL1        0.0310
     11 C         141.9103  139.6795  169.2055 C.ar    1  UNL1       -0.0218
     12 C         142.4638  139.6186  167.8127 C.ar    1  UNL1       -0.0030
     13 C         141.5686  139.8798  166.6378 C.ar    1  UNL1        0.0145
     14 C         140.1199  140.2019  166.8556 C.ar    1  UNL1        0.0520
     15 C         139.5664  140.2628  168.2483 C.ar    1  UNL1        0.0145
     16 C         140.4616  140.0016  169.4233 C.ar    1  UNL1       -0.0030
     17 C         138.4871  139.3289  165.0331 C.3     1  UNL1        0.2131
     18 C         138.9494  138.7909  163.7114 C.2     1  UNL1        0.3125
     19 N         140.3227  138.2729  163.4020 N.2     1  UNL1       -0.0634
     20 C         140.3417  137.8382  161.9665 C.3     1  UNL1        0.3130
     21 C         138.9801  138.0876  161.3887 C.3     1  UNL1        0.2575
     22 N         138.1195  138.6763  162.4671 N.pl3   1  UNL1       -0.2175
     23 H         137.1758  138.9411  162.3744 H       1  UNL1        0.2921
@<TRIPOS>BOND
     1    10    11    1
     2    11    12   ar
     3    12    13   ar
     4    13    14   ar
     5    14     1    1
     6     1    17    1
     7    17    18    1
     8    18    19    2
     9    19    20    1
    10    20    21    1
    11    21    22    1
    12     1     2    1
    13     2     3   ar
    14     3     4   ar
    15     4     5   ar
    16     5     6   ar
    17     6     7    1
    18     6     8   ar
    19    14    15   ar
    20    15    16   ar
    21    16    11   ar
    22    22    18    1
    23     8     2   ar
    24    22    23    1
    25     7     9    1
@<TRIPOS>MOLECULE
*****
 23 25 0 0 0
SMALL
GASTEIGER

@<TRIPOS>ATOM
      1 N         141.3011  142.4161  164.9045 N.pl3   1  UNL1       -0.2759
      2 C         142.6917  142.0188  164.5067 C.ar    1  UNL1        0.0551
      3 C         143.8414  142.9446  164.7733 C.ar    1  UNL1        0.0150
      4 C         145.2321  142.5474  164.3754 C.ar    1  UNL1        0.0044
      5 C         145.4731  141.2243  163.7110 C.ar    1  UNL1        0.0367
      6 C         144.3234  140.2985  163.4445 C.ar    1  UNL1        0.1349
      7 O         144.5644  138.9754  162.7800 O.3     1  UNL1       -0.5055
      8 C         142.9327  140.6957  163.8423 C.ar    1  UNL1        0.0514
      9 H         145.4331  138.7272  162.5315 H       1  UNL1        0.2922
     10 C         137.5084  138.3007  167.0676 C.3     1  UNL1        0.0310
     11 C         138.4566  139.3295  166.5268 C.ar    1  UNL1       -0.0218
     12 C         138.2972  139.8316  165.1224 C.ar    1  UNL1       -0.0030
     13 C         139.2454  140.8605  164.5816 C.ar    1  UNL1        0.0145
     14 C         140.3529  141.3872  165.4453 C.ar    1  UNL1        0.0520
     15 C         140.5123  140.8851  166.8497 C.ar    1  UNL1        0.0145
     16 C         139.5641  139.8562  167.3905 C.ar    1  UNL1       -0.0030
     17 C         140.8587  143.8421  164.7616 C.3     1  UNL1        0.2131
     18 C         140.5278  144.3925  163.4060 C.2     1  UNL1        0.3125
     19 N         140.3493  143.5931  162.1494 N.2     1  UNL1       -0.0634
     20 C         140.0286  144.5454  161.0357 C.3     1  UNL1        0.3130
     21 C         140.0089  145.9334  161.6040 C.3     1  UNL1        0.2575
     22 N         140.3174  145.8390  163.0690 N.pl3   1  UNL1       -0.2175
     23 H         140.3722  146.5938  163.6987 H       1  UNL1        0.2921
@<TRIPOS>BOND
     1    10    11    1
     2    11    12   ar
     3    12    13   ar
     4    13    14   ar
     5    14     1    1
     6     1    17    1
     7    17    18    1
     8    18    19    2
     9    19    20    1
    10    20    21    1
    11    21    22    1
    12     1     2    1
    13     2     3   ar
    14     3     4   ar
    15     4     5   ar
    16     5     6   ar
    17     6     7    1
    18     6     8   ar
    19    14    15   ar
    20    15    16   ar
    21    16    11   ar
    22    22    18    1
    23     8     2   ar
    24    22    23    1
    25     7     9    1
@<TRIPOS>MOLECULE
*****
 23 25 0 0 0
SMALL
GASTEIGER

@<TRIPOS>ATOM
      1 N         142.0124  139.2276  165.9299 N.pl3   1  UNL1       -0.2759
      2 C         141.6396  139.5359  167.3497 C.ar    1  UNL1        0.0551
      3 C         140.2390  139.9568  167.6830 C.ar    1  UNL1        0.0150
      4 C         139.8662  140.2651  169.1029 C.ar    1  UNL1        0.0044
      5 C         140.8941  140.1525  170.1895 C.ar    1  UNL1        0.0367
      6 C         142.2948  139.7316  169.8562 C.ar    1  UNL1        0.1349
      7 O         143.3227  139.6191  170.9429 O.3     1  UNL1       -0.5055
      8 C         142.6675  139.4234  168.4364 C.ar    1  UNL1        0.0514
      9 H         143.0898  139.8116  171.8298 H       1  UNL1        0.2922
     10 C         137.7306  138.5794  161.7771 C.3     1  UNL1        0.0310
     11 C         138.8010  138.7414  162.8153 C.ar    1  UNL1       -0.0218
     12 C         139.1772  137.5838  163.6917 C.ar    1  UNL1       -0.0030
     13 C         140.2477  137.7458  164.7299 C.ar    1  UNL1        0.0145
     14 C         140.9419  139.0656  164.8917 C.ar    1  UNL1        0.0520
     15 C         140.5657  140.2233  164.0153 C.ar    1  UNL1        0.0145
     16 C         139.4953  140.0612  162.9771 C.ar    1  UNL1       -0.0030
     17 C         143.4556  139.0814  165.5482 C.3     1  UNL1        0.2131
     18 C         144.1777  140.2220  164.8942 C.2     1  UNL1        0.3125
     19 N         143.9283  141.6805  165.1401 N.2     1  UNL1       -0.0634
     20 C         144.8724  142.4642  164.2772 C.3     1  UNL1        0.3130
     21 C         145.7054  141.4900  163.4980 C.3     1  UNL1        0.2575
     22 N         145.2760  140.1042  163.8793 N.pl3   1  UNL1       -0.2175
     23 H         145.6495  139.2647  163.5256 H       1  UNL1        0.2921
@<TRIPOS>BOND
     1    10    11    1
     2    11    12   ar
     3    12    13   ar
     4    13    14   ar
     5    14     1    1
     6     1    17    1
     7    17    18    1
     8    18    19    2
     9    19    20    1
    10    20    21    1
    11    21    22    1
    12     1     2    1
    13     2     3   ar
    14     3     4   ar
    15     4     5   ar
    16     5     6   ar
    17     6     7    1
    18     6     8   ar
    19    14    15   ar
    20    15    16   ar
    21    16    11   ar
    22    22    18    1
    23     8     2   ar
    24    22    23    1
    25     7     9    1
@<TRIPOS>MOLECULE
*****
 23 25 0 0 0
SMALL
GASTEIGER

@<TRIPOS>ATOM
      1 N         141.3824  142.0162  166.0067 N.pl3   1  UNL1       -0.2759
      2 C         141.5906  142.3987  167.4420 C.ar    1  UNL1        0.0551
      3 C         140.4635  142.9984  168.2294 C.ar    1  UNL1        0.0150
      4 C         140.6718  143.3809  169.6649 C.ar    1  UNL1        0.0044
      5 C         142.0070  143.1637  170.3128 C.ar    1  UNL1        0.0367
      6 C         143.1341  142.5640  169.5254 C.ar    1  UNL1        0.1349
      7 O         144.4694  142.3467  170.1734 O.3     1  UNL1       -0.5055
      8 C         142.9259  142.1814  168.0900 C.ar    1  UNL1        0.0514
      9 H         144.5995  142.5857  171.0700 H       1  UNL1        0.2922
     10 C         139.8257  146.1883  161.9855 C.3     1  UNL1        0.0310
     11 C         140.2149  145.1453  162.9908 C.ar    1  UNL1       -0.0218
     12 C         141.6608  144.9299  163.3266 C.ar    1  UNL1       -0.0030
     13 C         142.0500  143.8869  164.3319 C.ar    1  UNL1        0.0145
     14 C         140.9932  143.0592  165.0014 C.ar    1  UNL1        0.0520
     15 C         139.5473  143.2745  164.6655 C.ar    1  UNL1        0.0145
     16 C         139.1581  144.3176  163.6602 C.ar    1  UNL1       -0.0030
     17 C         141.5634  140.5906  165.5766 C.3     1  UNL1        0.2131
     18 C         142.7507  140.2028  164.7459 C.2     1  UNL1        0.3125
     19 N         144.1150  140.8224  164.8145 N.2     1  UNL1       -0.0634
     20 C         144.9896  140.1298  163.8118 C.3     1  UNL1        0.3130
     21 C         144.1659  139.0821  163.1235 C.3     1  UNL1        0.2575
     22 N         142.7821  139.1271  163.7008 N.pl3   1  UNL1       -0.2175
     23 H         142.0271  138.5518  163.4397 H       1  UNL1        0.2921
@<TRIPOS>BOND
     1    10    11    1
     2    11    12   ar
     3    12    13   ar
     4    13    14   ar
     5    14     1    1
     6     1    17    1
     7    17    18    1
     8    18    19    2
     9    19    20    1
    10    20    21    1
    11    21    22    1
    12     1     2    1
    13     2     3   ar
    14     3     4   ar
    15     4     5   ar
    16     5     6   ar
    17     6     7    1
    18     6     8   ar
    19    14    15   ar
    20    15    16   ar
    21    16    11   ar
    22    22    18    1
    23     8     2   ar
    24    22    23    1
    25     7     9    1
@<TRIPOS>MOLECULE
*****
 23 25 0 0 0
SMALL
GASTEIGER

@<TRIPOS>ATOM
      1 N         140.4157  141.2536  166.9942 N.pl3   1  UNL1       -0.2759
      2 C         139.7944  139.9859  166.4874 C.ar    1  UNL1        0.0551
      3 C         140.3637  139.3022  165.2798 C.ar    1  UNL1        0.0150
      4 C         139.7422  138.0344  164.7730 C.ar    1  UNL1        0.0044
      5 C         138.5516  137.4505  165.4739 C.ar    1  UNL1        0.0367
      6 C         137.9823  138.1342  166.6816 C.ar    1  UNL1        0.1349
      7 O         136.7915  137.5502  167.3824 O.3     1  UNL1       -0.5055
      8 C         138.6036  139.4019  167.1883 C.ar    1  UNL1        0.0514
      9 H         136.4034  136.7583  167.0659 H       1  UNL1        0.2922
     10 C         143.2538  144.9306  163.1962 C.3     1  UNL1        0.0310
     11 C         142.5443  144.0113  164.1457 C.ar    1  UNL1       -0.0218
     12 C         143.2906  142.8860  164.7988 C.ar    1  UNL1       -0.0030
     13 C         142.5811  141.9667  165.7483 C.ar    1  UNL1        0.0145
     14 C         141.1252  142.1728  166.0447 C.ar    1  UNL1        0.0520
     15 C         140.3789  143.2982  165.3917 C.ar    1  UNL1        0.0145
     16 C         141.0884  144.2174  164.4422 C.ar    1  UNL1       -0.0030
     17 C         140.3275  141.6020  168.4505 C.3     1  UNL1        0.2131
     18 C         141.5516  142.0578  169.1881 C.2     1  UNL1        0.3125
     19 N         142.9131  141.4336  169.1074 N.2     1  UNL1       -0.0634
     20 C         143.8320  142.2078  170.0053 C.3     1  UNL1        0.3130
     21 C         143.0384  143.3105  170.6410 C.3     1  UNL1        0.2575
     22 N         141.6289  143.2178  170.1359 N.pl3   1  UNL1       -0.2175
     23 H         140.8853  143.8138  170.3831 H       1  UNL1        0.2921
@<TRIPOS>BOND
     1    10    11    1
     2    11    12   ar
     3    12    13   ar
     4    13    14   ar
     5    14     1    1
     6     1    17    1
     7    17    18    1
     8    18    19    2
     9    19    20    1
    10    20    21    1
    11    21    22    1
    12     1     2    1
    13     2     3   ar
    14     3     4   ar
    15     4     5   ar
    16     5     6   ar
    17     6     7    1
    18     6     8   ar
    19    14    15   ar
    20    15    16   ar
    21    16    11   ar
    22    22    18    1
    23     8     2   ar
    24    22    23    1
    25     7     9    1
