@<TRIPOS>MOLECULE
*****
 23 25 0 0 0
SMALL
GASTEIGER

@<TRIPOS>ATOM
      1 C         139.8446  140.5397  167.6447 C.ar    1  UNL1        0.0840
      2 C         139.8856  140.7047  166.1544 C.ar    1  UNL1        0.0163
      3 C         138.9518  139.9145  165.2863 C.ar    1  UNL1       -0.0033
      4 C         137.9769  138.9592  165.9086 C.ar    1  UNL1        0.0178
      5 C         137.9359  138.7942  167.3990 C.ar    1  UNL1        0.0985
      6 N         138.8698  139.5845  168.2670 N.ar    1  UNL1       -0.2438
      7 C         142.0890  140.7375  168.9383 C.ar    1  UNL1        0.1423
      8 C         143.0228  141.5278  169.8063 C.ar    1  UNL1        0.0665
      9 C         142.6460  142.9106  170.2487 C.ar    1  UNL1        0.1432
     10 F         143.5798  143.7009  171.1168 F       1  UNL1       -0.2041
     11 C         141.3354  143.5031  169.8232 C.ar    1  UNL1        0.0299
     12 C         140.4016  142.7128  168.9552 C.ar    1  UNL1        0.0068
     13 C         140.7784  141.3300  168.5127 C.ar    1  UNL1        0.0517
     14 C         143.0692  139.1395  167.1395 C.3     1  UNL1        0.2525
     15 O         142.4659  139.3546  168.4958 O.3     1  UNL1       -0.4713
     16 C         138.9928  140.0794  163.7960 C.3     1  UNL1        0.0957
     17 N         138.4481  141.3260  163.1641 N.3     1  UNL1       -0.2948
     18 H         137.4323  141.2333  163.1579 H       1  UNL1        0.1235
     19 C         138.7569  142.6666  163.7622 C.3     1  UNL1        0.0542
     20 C         137.8437  143.4732  164.6370 C.3     1  UNL1        0.0157
     21 C         138.5556  144.7410  165.0059 C.3     1  UNL1        0.0014
     22 C         139.9087  144.7179  164.3591 C.3     1  UNL1        0.0014
     23 C         140.0331  143.4358  163.5904 C.3     1  UNL1        0.0157
@<TRIPOS>BOND
     1    14    15    1
     2    15     7    1
     3     7     8   ar
     4     8     9   ar
     5     9    10    1
     6     9    11   ar
     7    11    12   ar
     8    12    13   ar
     9    13     1    1
    10     1     2   ar
    11     2     3   ar
    12     3    16    1
    13    16    17    1
    14    17    19    1
    15    19    20    1
    16    20    21    1
    17    21    22    1
    18    22    23    1
    19     3     4   ar
    20     4     5   ar
    21     5     6   ar
    22    13     7   ar
    23     6     1   ar
    24    23    19    1
    25    17    18    1
@<TRIPOS>MOLECULE
*****
 23 25 0 0 0
SMALL
GASTEIGER

@<TRIPOS>ATOM
      1 C         139.8705  139.0928  165.4436 C.ar    1  UNL1        0.0840
      2 C         138.9474  139.9358  164.6147 C.ar    1  UNL1        0.0163
      3 C         138.5494  139.4837  163.2410 C.ar    1  UNL1       -0.0033
      4 C         139.0746  138.1886  162.6961 C.ar    1  UNL1        0.0178
      5 C         139.9977  137.3456  163.5250 C.ar    1  UNL1        0.0985
      6 N         140.3957  137.7977  164.8988 N.ar    1  UNL1       -0.2438
      7 C         141.7174  139.7426  167.1516 C.ar    1  UNL1        0.1423
      8 C         142.1153  140.1947  168.5253 C.ar    1  UNL1        0.0665
      9 C         141.0643  140.4492  169.5649 C.ar    1  UNL1        0.1432
     10 F         141.4623  140.9014  170.9387 F       1  UNL1       -0.2041
     11 C         139.6154  140.2516  169.2307 C.ar    1  UNL1        0.0299
     12 C         139.2175  139.7995  167.8570 C.ar    1  UNL1        0.0068
     13 C         140.2685  139.5450  166.8174 C.ar    1  UNL1        0.0517
     14 C         143.6766  138.3011  166.2387 C.3     1  UNL1        0.2525
     15 O         142.7683  139.4881  166.1120 O.3     1  UNL1       -0.4713
     16 C         137.6262  140.3267  162.4121 C.3     1  UNL1        0.0957
     17 N         136.8903  141.4730  163.0402 N.3     1  UNL1       -0.2948
     18 H         136.5258  141.1360  163.9312 H       1  UNL1        0.1235
     19 C         137.6077  142.7593  163.3244 C.3     1  UNL1        0.0542
     20 C         138.2690  143.6431  162.3088 C.3     1  UNL1        0.0157
     21 C         138.8597  144.8176  163.0310 C.3     1  UNL1        0.0014
     22 C         138.5635  144.6598  164.4929 C.3     1  UNL1        0.0014
     23 C         137.7896  143.3876  164.6743 C.3     1  UNL1        0.0157
@<TRIPOS>BOND
     1    14    15    1
     2    15     7    1
     3     7     8   ar
     4     8     9   ar
     5     9    10    1
     6     9    11   ar
     7    11    12   ar
     8    12    13   ar
     9    13     1    1
    10     1     2   ar
    11     2     3   ar
    12     3    16    1
    13    16    17    1
    14    17    19    1
    15    19    20    1
    16    20    21    1
    17    21    22    1
    18    22    23    1
    19     3     4   ar
    20     4     5   ar
    21     5     6   ar
    22    13     7   ar
    23     6     1   ar
    24    23    19    1
    25    17    18    1
@<TRIPOS>MOLECULE
*****
 23 25 0 0 0
SMALL
GASTEIGER

@<TRIPOS>ATOM
      1 C         140.6756  142.8687  165.9598 C.ar    1  UNL1        0.0840
      2 C         139.5844  143.6139  165.2498 C.ar    1  UNL1        0.0163
      3 C         139.8885  144.3678  163.9892 C.ar    1  UNL1       -0.0033
      4 C         141.2838  144.3764  163.4385 C.ar    1  UNL1        0.0178
      5 C         142.3749  143.6312  164.1484 C.ar    1  UNL1        0.0985
      6 N         142.0708  142.8773  165.4091 N.ar    1  UNL1       -0.2438
      7 C         139.7894  140.7343  167.1469 C.ar    1  UNL1        0.1423
      8 C         139.4853  139.9804  168.4075 C.ar    1  UNL1        0.0665
      9 C         139.7633  140.6071  169.7417 C.ar    1  UNL1        0.1432
     10 F         139.4591  139.8532  171.0024 F       1  UNL1       -0.2041
     11 C         140.3453  141.9876  169.8152 C.ar    1  UNL1        0.0299
     12 C         140.6494  142.7414  168.5546 C.ar    1  UNL1        0.0068
     13 C         140.3714  142.1148  167.2204 C.ar    1  UNL1        0.0517
     14 C         138.3382  139.1881  165.6458 C.3     1  UNL1        0.2525
     15 O         139.5115  140.1076  165.8127 O.3     1  UNL1       -0.4713
     16 C         138.7973  145.1130  163.2793 C.3     1  UNL1        0.0957
     17 N         137.6452  144.3635  162.6786 N.3     1  UNL1       -0.2948
     18 H         137.3477  144.8899  161.8571 H       1  UNL1        0.1235
     19 C         137.8234  142.9403  162.2397 C.3     1  UNL1        0.0542
     20 C         137.3921  141.7222  163.0014 C.3     1  UNL1        0.0157
     21 C         137.7664  140.5143  162.1946 C.3     1  UNL1        0.0014
     22 C         138.4290  140.9859  160.9342 C.3     1  UNL1        0.0014
     23 C         138.4643  142.4852  160.9622 C.3     1  UNL1        0.0157
@<TRIPOS>BOND
     1    14    15    1
     2    15     7    1
     3     7     8   ar
     4     8     9   ar
     5     9    10    1
     6     9    11   ar
     7    11    12   ar
     8    12    13   ar
     9    13     1    1
    10     1     2   ar
    11     2     3   ar
    12     3    16    1
    13    16    17    1
    14    17    19    1
    15    19    20    1
    16    20    21    1
    17    21    22    1
    18    22    23    1
    19     3     4   ar
    20     4     5   ar
    21     5     6   ar
    22    13     7   ar
    23     6     1   ar
    24    23    19    1
    25    17    18    1
@<TRIPOS>MOLECULE
*****
 23 25 0 0 0
SMALL
GASTEIGER

@<TRIPOS>ATOM
      1 C         139.7360  141.3047  166.1673 C.ar    1  UNL1        0.0840
      2 C         139.8512  142.7840  165.9471 C.ar    1  UNL1        0.0163
      3 C         139.0396  143.4481  164.8747 C.ar    1  UNL1       -0.0033
      4 C         138.1126  142.6330  164.0224 C.ar    1  UNL1        0.0178
      5 C         137.9974  141.1537  164.2425 C.ar    1  UNL1        0.0985
      6 N         138.8091  140.4896  165.3150 N.ar    1  UNL1       -0.2438
      7 C         141.9135  140.1067  166.9244 C.ar    1  UNL1        0.1423
      8 C         142.7251  139.4426  167.9969 C.ar    1  UNL1        0.0665
      9 C         142.1709  139.3124  169.3846 C.ar    1  UNL1        0.1432
     10 F         142.9826  138.6482  170.4571 F       1  UNL1       -0.2041
     11 C         140.8051  139.8462  169.7000 C.ar    1  UNL1        0.0299
     12 C         139.9935  140.5103  168.6275 C.ar    1  UNL1        0.0068
     13 C         140.5477  140.6406  167.2397 C.ar    1  UNL1        0.0517
     14 C         143.3610  141.3912  165.1910 C.3     1  UNL1        0.2525
     15 O         142.4677  140.2369  165.5366 O.3     1  UNL1       -0.4713
     16 C         139.1549  144.9274  164.6546 C.3     1  UNL1        0.0957
     17 N         139.8768  145.4523  163.4491 N.3     1  UNL1       -0.2948
     18 H         139.9383  146.4643  163.5602 H       1  UNL1        0.1235
     19 C         141.2603  144.9665  163.1328 C.3     1  UNL1        0.0542
     20 C         142.5087  145.3052  163.8921 C.3     1  UNL1        0.0157
     21 C         143.6583  144.6047  163.2303 C.3     1  UNL1        0.0014
     22 C         143.1202  143.8330  162.0620 C.3     1  UNL1        0.0014
     23 C         141.6382  144.0566  162.0017 C.3     1  UNL1        0.0157
@<TRIPOS>BOND
     1    14    15    1
     2    15     7    1
     3     7     8   ar
     4     8     9   ar
     5     9    10    1
     6     9    11   ar
     7    11    12   ar
     8    12    13   ar
     9    13     1    1
    10     1     2   ar
    11     2     3   ar
    12     3    16    1
    13    16    17    1
    14    17    19    1
    15    19    20    1
    16    20    21    1
    17    21    22    1
    18    22    23    1
    19     3     4   ar
    20     4     5   ar
    21     5     6   ar
    22    13     7   ar
    23     6     1   ar
    24    23    19    1
    25    17    18    1
@<TRIPOS>MOLECULE
*****
 23 25 0 0 0
SMALL
GASTEIGER

@<TRIPOS>ATOM
      1 C         142.6681  139.6425  165.4778 C.ar    1  UNL1        0.0840
      2 C         143.7732  140.6029  165.1513 C.ar    1  UNL1        0.0163
      3 C         144.4857  140.5070  163.8349 C.ar    1  UNL1       -0.0033
      4 C         144.0932  139.4506  162.8449 C.ar    1  UNL1        0.0178
      5 C         142.9882  138.4902  163.1713 C.ar    1  UNL1        0.0985
      6 N         142.2756  138.5862  164.4878 N.ar    1  UNL1       -0.2438
      7 C         140.5025  140.1086  166.8354 C.ar    1  UNL1        0.1423
      8 C         139.7901  140.2045  168.1519 C.ar    1  UNL1        0.0665
      9 C         140.5306  139.9304  169.4272 C.ar    1  UNL1        0.1432
     10 F         139.8181  140.0264  170.7437 F       1  UNL1       -0.2041
     11 C         141.9836  139.5604  169.3861 C.ar    1  UNL1        0.0299
     12 C         142.6961  139.4644  168.0696 C.ar    1  UNL1        0.0068
     13 C         141.9556  139.7385  166.7943 C.ar    1  UNL1        0.0517
     14 C         138.5945  139.5248  165.1715 C.3     1  UNL1        0.2525
     15 O         139.7620  140.3827  165.5601 O.3     1  UNL1       -0.4713
     16 C         145.5907  141.4673  163.5085 C.3     1  UNL1        0.0957
     17 N         145.3393  142.6083  162.5677 N.3     1  UNL1       -0.2948
     18 H         145.2324  142.2045  161.6372 H       1  UNL1        0.1235
     19 C         144.1634  143.5139  162.7846 C.3     1  UNL1        0.0542
     20 C         143.0092  143.7006  161.8449 C.3     1  UNL1        0.0157
     21 C         142.0677  144.6940  162.4587 C.3     1  UNL1        0.0014
     22 C         142.6399  145.1212  163.7777 C.3     1  UNL1        0.0014
     23 C         143.9351  144.3919  163.9791 C.3     1  UNL1        0.0157
@<TRIPOS>BOND
     1    14    15    1
     2    15     7    1
     3     7     8   ar
     4     8     9   ar
     5     9    10    1
     6     9    11   ar
     7    11    12   ar
     8    12    13   ar
     9    13     1    1
    10     1     2   ar
    11     2     3   ar
    12     3    16    1
    13    16    17    1
    14    17    19    1
    15    19    20    1
    16    20    21    1
    17    21    22    1
    18    22    23    1
    19     3     4   ar
    20     4     5   ar
    21     5     6   ar
    22    13     7   ar
    23     6     1   ar
    24    23    19    1
    25    17    18    1
@<TRIPOS>MOLECULE
*****
 23 25 0 0 0
SMALL
GASTEIGER

@<TRIPOS>ATOM
      1 C         139.1788  142.5169  163.8305 C.ar    1  UNL1        0.0840
      2 C         140.5024  143.2093  163.9680 C.ar    1  UNL1        0.0163
      3 C         140.6626  144.6225  163.4913 C.ar    1  UNL1       -0.0033
      4 C         139.4993  145.3433  162.8771 C.ar    1  UNL1        0.0178
      5 C         138.1758  144.6509  162.7396 C.ar    1  UNL1        0.0985
      6 N         138.0156  143.2377  163.2163 N.ar    1  UNL1       -0.2438
      7 C         138.8879  139.9874  163.3140 C.ar    1  UNL1        0.1423
      8 C         138.7277  138.5742  163.7907 C.ar    1  UNL1        0.0665
      9 C         138.6982  138.2774  165.2607 C.ar    1  UNL1        0.1432
     10 F         138.5380  136.8642  165.7375 F       1  UNL1       -0.2041
     11 C         138.8290  139.3938  166.2540 C.ar    1  UNL1        0.0299
     12 C         138.9892  140.8069  165.7773 C.ar    1  UNL1        0.0068
     13 C         139.0186  141.1037  164.3072 C.ar    1  UNL1        0.0517
     14 C         137.6829  140.0892  161.0145 C.3     1  UNL1        0.2525
     15 O         138.9174  140.2842  161.8439 O.3     1  UNL1       -0.4713
     16 C         141.9861  145.3149  163.6288 C.3     1  UNL1        0.0957
     17 N         143.1104  144.9760  162.6955 N.3     1  UNL1       -0.2948
     18 H         143.7199  145.7930  162.6599 H       1  UNL1        0.1235
     19 C         143.9882  143.7928  162.9772 C.3     1  UNL1        0.0542
     20 C         144.3754  143.2854  164.3347 C.3     1  UNL1        0.0157
     21 C         145.2595  142.0882  164.1473 C.3     1  UNL1        0.0014
     22 C         145.4188  141.8556  162.6741 C.3     1  UNL1        0.0014
     23 C         144.6331  142.9091  161.9509 C.3     1  UNL1        0.0157
@<TRIPOS>BOND
     1    14    15    1
     2    15     7    1
     3     7     8   ar
     4     8     9   ar
     5     9    10    1
     6     9    11   ar
     7    11    12   ar
     8    12    13   ar
     9    13     1    1
    10     1     2   ar
    11     2     3   ar
    12     3    16    1
    13    16    17    1
    14    17    19    1
    15    19    20    1
    16    20    21    1
    17    21    22    1
    18    22    23    1
    19     3     4   ar
    20     4     5   ar
    21     5     6   ar
    22    13     7   ar
    23     6     1   ar
    24    23    19    1
    25    17    18    1
@<TRIPOS>MOLECULE
*****
 23 25 0 0 0
SMALL
GASTEIGER

@<TRIPOS>ATOM
      1 C         139.5260  140.0187  165.8116 C.ar    1  UNL1        0.0840
      2 C         140.4852  138.9603  165.3537 C.ar    1  UNL1        0.0163
      3 C         140.3113  138.3224  164.0073 C.ar    1  UNL1       -0.0033
      4 C         139.1783  138.7430  163.1188 C.ar    1  UNL1        0.0178
      5 C         138.2191  139.8014  163.5767 C.ar    1  UNL1        0.0985
      6 N         138.3930  140.4393  164.9232 N.ar    1  UNL1       -0.2438
      7 C         140.3480  142.0046  167.2713 C.ar    1  UNL1        0.1423
      8 C         140.5219  142.6424  168.6178 C.ar    1  UNL1        0.0665
      9 C         140.0477  141.9322  169.8510 C.ar    1  UNL1        0.1432
     10 F         140.2216  142.5701  171.1975 F       1  UNL1       -0.2041
     11 C         139.3997  140.5842  169.7377 C.ar    1  UNL1        0.0299
     12 C         139.2258  139.9464  168.3913 C.ar    1  UNL1        0.0068
     13 C         139.7000  140.6566  167.1581 C.ar    1  UNL1        0.0517
     14 C         139.9337  143.7157  165.3607 C.3     1  UNL1        0.2525
     15 O         140.8221  142.7148  166.0381 O.3     1  UNL1       -0.4713
     16 C         141.2705  137.2639  163.5493 C.3     1  UNL1        0.0957
     17 N         142.3627  137.6097  162.5811 N.3     1  UNL1       -0.2948
     18 H         141.9087  137.8671  161.7047 H       1  UNL1        0.1235
     19 C         143.3324  138.7073  162.9051 C.3     1  UNL1        0.0542
     20 C         143.9776  138.9490  164.2375 C.3     1  UNL1        0.0157
     21 C         144.8712  140.1469  164.1095 C.3     1  UNL1        0.0014
     22 C         144.7783  140.6457  162.6979 C.3     1  UNL1        0.0014
     23 C         143.8273  139.7559  161.9535 C.3     1  UNL1        0.0157
@<TRIPOS>BOND
     1    14    15    1
     2    15     7    1
     3     7     8   ar
     4     8     9   ar
     5     9    10    1
     6     9    11   ar
     7    11    12   ar
     8    12    13   ar
     9    13     1    1
    10     1     2   ar
    11     2     3   ar
    12     3    16    1
    13    16    17    1
    14    17    19    1
    15    19    20    1
    16    20    21    1
    17    21    22    1
    18    22    23    1
    19     3     4   ar
    20     4     5   ar
    21     5     6   ar
    22    13     7   ar
    23     6     1   ar
    24    23    19    1
    25    17    18    1
@<TRIPOS>MOLECULE
*****
 23 25 0 0 0
SMALL
GASTEIGER

@<TRIPOS>ATOM
      1 C         140.6756  143.4058  165.2345 C.ar    1  UNL1        0.0840
      2 C         142.0891  143.7207  164.8434 C.ar    1  UNL1        0.0163
      3 C         142.3609  144.6399  163.6897 C.ar    1  UNL1       -0.0033
      4 C         141.2193  145.2442  162.9270 C.ar    1  UNL1        0.0178
      5 C         139.8059  144.9292  163.3181 C.ar    1  UNL1        0.0985
      6 N         139.5340  144.0100  164.4719 N.ar    1  UNL1       -0.2438
      7 C         139.8843  141.1018  166.1378 C.ar    1  UNL1        0.1423
      8 C         139.6125  140.1827  167.2915 C.ar    1  UNL1        0.0665
      9 C         139.8601  140.6482  168.6958 C.ar    1  UNL1        0.1432
     10 F         139.5883  139.7289  169.8496 F       1  UNL1       -0.2041
     11 C         140.3796  142.0328  168.9463 C.ar    1  UNL1        0.0299
     12 C         140.6514  142.9520  167.7926 C.ar    1  UNL1        0.0068
     13 C         140.4038  142.4865  166.3883 C.ar    1  UNL1        0.0517
     14 C         138.2317  140.4694  164.2355 C.3     1  UNL1        0.2525
     15 O         139.6367  140.6363  164.7335 O.3     1  UNL1       -0.4713
     16 C         143.7744  144.9549  163.2987 C.3     1  UNL1        0.0957
     17 N         144.5220  144.0331  162.3814 N.3     1  UNL1       -0.2948
     18 H         145.4638  144.4128  162.2859 H       1  UNL1        0.1235
     19 C         144.6734  142.5833  162.7353 C.3     1  UNL1        0.0542
     20 C         144.0862  141.4261  161.9829 C.3     1  UNL1        0.0157
     21 C         144.4885  140.1638  162.6863 C.3     1  UNL1        0.0014
     22 C         145.3243  140.5409  163.8735 C.3     1  UNL1        0.0014
     23 C         145.4385  142.0362  163.9037 C.3     1  UNL1        0.0157
@<TRIPOS>BOND
     1    14    15    1
     2    15     7    1
     3     7     8   ar
     4     8     9   ar
     5     9    10    1
     6     9    11   ar
     7    11    12   ar
     8    12    13   ar
     9    13     1    1
    10     1     2   ar
    11     2     3   ar
    12     3    16    1
    13    16    17    1
    14    17    19    1
    15    19    20    1
    16    20    21    1
    17    21    22    1
    18    22    23    1
    19     3     4   ar
    20     4     5   ar
    21     5     6   ar
    22    13     7   ar
    23     6     1   ar
    24    23    19    1
    25    17    18    1
@<TRIPOS>MOLECULE
*****
 23 25 0 0 0
SMALL
GASTEIGER

@<TRIPOS>ATOM
      1 C         142.0194  141.5819  164.9676 C.ar    1  UNL1        0.0840
      2 C         141.6780  142.6886  164.0143 C.ar    1  UNL1        0.0163
      3 C         142.6009  143.8616  163.8653 C.ar    1  UNL1       -0.0033
      4 C         143.8654  143.9280  164.6696 C.ar    1  UNL1        0.0178
      5 C         144.2068  142.8213  165.6229 C.ar    1  UNL1        0.0985
      6 N         143.2838  141.6483  165.7719 N.ar    1  UNL1       -0.2438
      7 C         141.4935  139.0683  164.5733 C.ar    1  UNL1        0.1423
      8 C         140.5705  137.8954  164.7223 C.ar    1  UNL1        0.0665
      9 C         139.2504  138.0630  165.4146 C.ar    1  UNL1        0.1432
     10 F         138.3274  136.8900  165.5636 F       1  UNL1       -0.2041
     11 C         138.8533  139.4036  165.9578 C.ar    1  UNL1        0.0299
     12 C         139.7763  140.5765  165.8088 C.ar    1  UNL1        0.0068
     13 C         141.0964  140.4089  165.1166 C.ar    1  UNL1        0.0517
     14 C         142.8872  138.1699  162.5732 C.3     1  UNL1        0.2525
     15 O         142.8136  138.9007  163.8811 O.3     1  UNL1       -0.4713
     16 C         142.2595  144.9682  162.9120 C.3     1  UNL1        0.0957
     17 N         141.0192  145.7847  163.1239 N.3     1  UNL1       -0.2948
     18 H         140.8651  146.3143  162.2659 H       1  UNL1        0.1235
     19 C         139.7222  145.1069  163.4531 C.3     1  UNL1        0.0542
     20 C         139.1338  144.9471  164.8237 C.3     1  UNL1        0.0157
     21 C         137.8338  144.2113  164.6872 C.3     1  UNL1        0.0014
     22 C         137.6187  143.9162  163.2323 C.3     1  UNL1        0.0014
     23 C         138.7858  144.4697  162.4697 C.3     1  UNL1        0.0157
@<TRIPOS>BOND
     1    14    15    1
     2    15     7    1
     3     7     8   ar
     4     8     9   ar
     5     9    10    1
     6     9    11   ar
     7    11    12   ar
     8    12    13   ar
     9    13     1    1
    10     1     2   ar
    11     2     3   ar
    12     3    16    1
    13    16    17    1
    14    17    19    1
    15    19    20    1
    16    20    21    1
    17    21    22    1
    18    22    23    1
    19     3     4   ar
    20     4     5   ar
    21     5     6   ar
    22    13     7   ar
    23     6     1   ar
    24    23    19    1
    25    17    18    1
