@<TRIPOS>MOLECULE
*****
 32 36 0 0 0
SMALL
GASTEIGER

@<TRIPOS>ATOM
      1 N         138.1114  140.0476  162.3526 N.3     1  UNL1       -0.2711
      2 C         137.6718  140.7580  163.5984 C.3     1  UNL1        0.0735
      3 C         137.5402  142.2523  163.6029 C.3     1  UNL1        0.0331
      4 C         137.8483  143.0361  162.3617 C.3     1  UNL1        0.0570
      5 C         138.2880  142.3257  161.1158 C.3     1  UNL1        0.0331
      6 C         138.4195  140.8315  161.1113 C.3     1  UNL1        0.0735
      7 N         137.7168  144.5303  162.3663 N.3     1  UNL1       -0.2934
      8 H         137.0080  144.7613  163.0625 H       1  UNL1        0.1236
      9 C         138.9113  145.3874  162.6635 C.3     1  UNL1        0.1152
     10 C         140.2748  144.7688  162.7528 C.ar    1  UNL1        0.0782
     11 C         140.7586  144.2045  164.0556 C.ar    1  UNL1        0.0562
     12 C         142.1221  143.5858  164.1449 C.ar    1  UNL1        0.1752
     13 C         143.0019  143.5314  162.9313 C.ar    1  UNL1        0.1914
     14 C         142.5182  144.0957  161.6284 C.ar    1  UNL1        0.1384
     15 N         141.1546  144.7143  161.5391 N.ar    1  UNL1       -0.2434
     16 O         144.3655  142.9127  163.0206 O.3     1  UNL1       -0.4668
     17 C         144.8492  142.3485  164.3235 C.3     1  UNL1        0.2527
     18 C         143.9694  142.4029  165.5372 C.3     1  UNL1        0.2526
     19 O         142.6058  143.0216  165.4479 O.3     1  UNL1       -0.4683
     20 C         138.2430  138.5534  162.3480 C.3     1  UNL1        0.0942
     21 C         138.8216  137.8478  163.5386 C.3     1  UNL1        0.1157
     22 O         141.2704  137.3840  161.8688 O.2     1  UNL1       -0.2705
     23 C         141.3957  138.0100  163.2262 C.2     1  UNL1        0.2740
     24 C         142.7454  138.4040  163.7487 C.3     1  UNL1        0.2900
     25 O         142.8707  139.0300  165.1060 O.3     1  UNL1       -0.4643
     26 C         141.6463  139.2619  165.9410 C.ar    1  UNL1        0.1528
     27 C         141.7716  139.8878  167.2983 C.ar    1  UNL1        0.0382
     28 C         140.5473  140.1197  168.1332 C.ar    1  UNL1        0.0032
     29 C         139.1975  139.7257  167.6107 C.ar    1  UNL1        0.0015
     30 C         139.0722  139.0997  166.2534 C.ar    1  UNL1        0.0180
     31 C         140.2966  138.8678  165.4185 C.ar    1  UNL1        0.0881
     32 N         140.1713  138.2419  164.0611 N.am    1  UNL1       -0.2515
@<TRIPOS>BOND
     1    22    23    2
     2    23    24    1
     3    24    25    1
     4    25    26    1
     5    26    27   ar
     6    27    28   ar
     7    28    29   ar
     8    29    30   ar
     9    30    31   ar
    10    31    32    1
    11    32    21    1
    12    21    20    1
    13    20     1    1
    14     1     2    1
    15     2     3    1
    16     3     4    1
    17     4     7    1
    18     7     9    1
    19     9    10    1
    20    10    11   ar
    21    11    12   ar
    22    12    13   ar
    23    13    14   ar
    24    14    15   ar
    25    13    16    1
    26    16    17    1
    27    17    18    1
    28    18    19    1
    29     4     5    1
    30     5     6    1
    31    32    23   am
    32     6     1    1
    33    31    26   ar
    34    15    10   ar
    35    19    12    1
    36     7     8    1
@<TRIPOS>MOLECULE
*****
 32 36 0 0 0
SMALL
GASTEIGER

@<TRIPOS>ATOM
      1 N         143.0055  144.0056  162.4568 N.3     1  UNL1       -0.2711
      2 C         142.1506  143.6547  161.2753 C.3     1  UNL1        0.0735
      3 C         140.7039  144.0504  161.2524 C.3     1  UNL1        0.0331
      4 C         140.1122  144.7971  162.4110 C.3     1  UNL1        0.0570
      5 C         140.9671  145.1480  163.5925 C.3     1  UNL1        0.0331
      6 C         142.4138  144.7523  163.6154 C.3     1  UNL1        0.0735
      7 N         138.6655  145.1928  162.3881 N.3     1  UNL1       -0.2934
      8 H         138.3972  145.2712  161.4071 H       1  UNL1        0.1236
      9 C         137.6391  144.3216  163.0495 C.3     1  UNL1        0.1152
     10 C         137.8277  142.8339  163.0835 C.ar    1  UNL1        0.0782
     11 C         138.1490  142.1481  164.3782 C.ar    1  UNL1        0.0562
     12 C         138.3375  140.6603  164.4122 C.ar    1  UNL1        0.1752
     13 C         138.2048  139.8585  163.1515 C.ar    1  UNL1        0.1914
     14 C         137.8835  140.5444  161.8568 C.ar    1  UNL1        0.1384
     15 N         137.6949  142.0321  161.8228 N.ar    1  UNL1       -0.2434
     16 O         138.3934  138.3708  163.1856 O.3     1  UNL1       -0.4668
     17 C         138.7147  137.6849  164.4803 C.3     1  UNL1        0.2527
     18 C         138.8474  138.4868  165.7411 C.3     1  UNL1        0.2526
     19 O         138.6589  139.9745  165.7070 O.3     1  UNL1       -0.4683
     20 C         144.4522  143.6099  162.4796 C.3     1  UNL1        0.0942
     21 C         144.9283  142.5632  163.4429 C.3     1  UNL1        0.1157
     22 O         144.3636  140.3896  161.4537 O.2     1  UNL1       -0.2705
     23 C         143.7469  140.3347  162.8200 C.2     1  UNL1        0.2740
     24 C         142.8478  139.1930  163.1916 C.3     1  UNL1        0.2900
     25 O         142.2310  139.1380  164.5578 O.3     1  UNL1       -0.4643
     26 C         142.5134  140.2248  165.5525 C.ar    1  UNL1        0.1528
     27 C         141.8966  140.1699  166.9187 C.ar    1  UNL1        0.0382
     28 C         142.1790  141.2566  167.9132 C.ar    1  UNL1        0.0032
     29 C         143.0780  142.3983  167.5416 C.ar    1  UNL1        0.0015
     30 C         143.6948  142.4533  166.1754 C.ar    1  UNL1        0.0180
     31 C         143.4124  141.3665  165.1808 C.ar    1  UNL1        0.0881
     32 N         144.0292  141.4215  163.8146 N.am    1  UNL1       -0.2515
@<TRIPOS>BOND
     1    22    23    2
     2    23    24    1
     3    24    25    1
     4    25    26    1
     5    26    27   ar
     6    27    28   ar
     7    28    29   ar
     8    29    30   ar
     9    30    31   ar
    10    31    32    1
    11    32    21    1
    12    21    20    1
    13    20     1    1
    14     1     2    1
    15     2     3    1
    16     3     4    1
    17     4     7    1
    18     7     9    1
    19     9    10    1
    20    10    11   ar
    21    11    12   ar
    22    12    13   ar
    23    13    14   ar
    24    14    15   ar
    25    13    16    1
    26    16    17    1
    27    17    18    1
    28    18    19    1
    29     4     5    1
    30     5     6    1
    31    32    23   am
    32     6     1    1
    33    31    26   ar
    34    15    10   ar
    35    19    12    1
    36     7     8    1
@<TRIPOS>MOLECULE
*****
 32 36 0 0 0
SMALL
GASTEIGER

@<TRIPOS>ATOM
      1 N         138.1039  140.0182  162.0770 N.3     1  UNL1       -0.2711
      2 C         138.7897  140.7637  160.9708 C.3     1  UNL1        0.0735
      3 C         138.8590  142.2617  161.0063 C.3     1  UNL1        0.0331
      4 C         138.2425  143.0142  162.1480 C.3     1  UNL1        0.0570
      5 C         137.5566  142.2687  163.2543 C.3     1  UNL1        0.0331
      6 C         137.4873  140.7707  163.2188 C.3     1  UNL1        0.0735
      7 N         138.3117  144.5121  162.1835 N.3     1  UNL1       -0.2934
      8 H         137.5208  144.8303  162.7434 H       1  UNL1        0.1236
      9 C         139.5311  145.1938  162.7297 C.3     1  UNL1        0.1152
     10 C         140.6663  144.3779  163.2733 C.ar    1  UNL1        0.0782
     11 C         141.8413  144.0519  162.3997 C.ar    1  UNL1        0.0562
     12 C         142.9765  143.2359  162.9433 C.ar    1  UNL1        0.1752
     13 C         142.9368  142.7460  164.3605 C.ar    1  UNL1        0.1914
     14 C         141.7619  143.0720  165.2340 C.ar    1  UNL1        0.1384
     15 N         140.6266  143.8879  164.6905 N.ar    1  UNL1       -0.2434
     16 O         144.0721  141.9301  164.9040 O.3     1  UNL1       -0.4668
     17 C         145.2470  141.6041  164.0305 C.3     1  UNL1        0.2527
     18 C         145.2868  142.0940  162.6132 C.3     1  UNL1        0.2526
     19 O         144.1515  142.9100  162.0697 O.3     1  UNL1       -0.4683
     20 C         138.0346  138.5202  162.0415 C.3     1  UNL1        0.0942
     21 C         138.7084  137.7127  163.1111 C.3     1  UNL1        0.1157
     22 O         141.2713  137.5159  161.5642 O.2     1  UNL1       -0.2705
     23 C         141.2725  138.0980  162.9466 C.2     1  UNL1        0.2740
     24 C         142.5551  138.5818  163.5556 C.3     1  UNL1        0.2900
     25 O         142.5563  139.1639  164.9380 O.3     1  UNL1       -0.4643
     26 C         141.2749  139.2623  165.7115 C.ar    1  UNL1        0.1528
     27 C         141.2761  139.8445  167.0939 C.ar    1  UNL1        0.0382
     28 C         139.9947  139.9429  167.8673 C.ar    1  UNL1        0.0032
     29 C         138.7121  139.4592  167.2584 C.ar    1  UNL1        0.0015
     30 C         138.7108  138.8770  165.8760 C.ar    1  UNL1        0.0180
     31 C         139.9922  138.7786  165.1026 C.ar    1  UNL1        0.0881
     32 N         139.9911  138.1964  163.7201 N.am    1  UNL1       -0.2515
@<TRIPOS>BOND
     1    22    23    2
     2    23    24    1
     3    24    25    1
     4    25    26    1
     5    26    27   ar
     6    27    28   ar
     7    28    29   ar
     8    29    30   ar
     9    30    31   ar
    10    31    32    1
    11    32    21    1
    12    21    20    1
    13    20     1    1
    14     1     2    1
    15     2     3    1
    16     3     4    1
    17     4     7    1
    18     7     9    1
    19     9    10    1
    20    10    11   ar
    21    11    12   ar
    22    12    13   ar
    23    13    14   ar
    24    14    15   ar
    25    13    16    1
    26    16    17    1
    27    17    18    1
    28    18    19    1
    29     4     5    1
    30     5     6    1
    31    32    23   am
    32     6     1    1
    33    31    26   ar
    34    15    10   ar
    35    19    12    1
    36     7     8    1
@<TRIPOS>MOLECULE
*****
 32 36 0 0 0
SMALL
GASTEIGER

@<TRIPOS>ATOM
      1 N         143.0291  143.9923  162.4457 N.3     1  UNL1       -0.2711
      2 C         142.1751  143.5196  161.3067 C.3     1  UNL1        0.0735
      3 C         140.7240  143.8953  161.2510 C.3     1  UNL1        0.0331
      4 C         140.1269  144.7438  162.3343 C.3     1  UNL1        0.0570
      5 C         140.9808  145.2166  163.4733 C.3     1  UNL1        0.0331
      6 C         142.4319  144.8408  163.5290 C.3     1  UNL1        0.0735
      7 N         138.6758  145.1195  162.2786 N.3     1  UNL1       -0.2934
      8 H         138.4011  145.0887  161.2967 H       1  UNL1        0.1236
      9 C         137.6628  144.3142  163.0371 C.3     1  UNL1        0.1152
     10 C         137.8549  142.8363  163.2076 C.ar    1  UNL1        0.0782
     11 C         138.2108  142.2766  164.5529 C.ar    1  UNL1        0.0562
     12 C         138.4029  140.7987  164.7234 C.ar    1  UNL1        0.1752
     13 C         138.2390  139.8806  163.5486 C.ar    1  UNL1        0.1914
     14 C         137.8830  140.4404  162.2033 C.ar    1  UNL1        0.1384
     15 N         137.6910  141.9182  162.0328 N.ar    1  UNL1       -0.2434
     16 O         138.4310  138.4028  163.7192 O.3     1  UNL1       -0.4668
     17 C         138.7870  137.8430  165.0645 C.3     1  UNL1        0.2527
     18 C         138.9509  138.7611  166.2394 C.3     1  UNL1        0.2526
     19 O         138.7588  140.2390  166.0689 O.3     1  UNL1       -0.4683
     20 C         144.4802  143.6166  162.5014 C.3     1  UNL1        0.0942
     21 C         144.9331  142.5052  163.4013 C.3     1  UNL1        0.1157
     22 O         143.6127  142.7780  166.0812 O.2     1  UNL1       -0.2705
     23 C         143.2930  141.6043  165.2036 C.2     1  UNL1        0.2740
     24 C         142.3130  140.5670  165.6659 C.3     1  UNL1        0.2900
     25 O         141.9933  139.3934  164.7883 O.3     1  UNL1       -0.4643
     26 C         142.6535  139.2569  163.4483 C.ar    1  UNL1        0.1528
     27 C         142.3337  138.0833  162.5707 C.ar    1  UNL1        0.0382
     28 C         142.9939  137.9469  161.2308 C.ar    1  UNL1        0.0032
     29 C         143.9739  138.9841  160.7684 C.ar    1  UNL1        0.0015
     30 C         144.2937  140.1578  161.6460 C.ar    1  UNL1        0.0180
     31 C         143.6335  140.2942  162.9859 C.ar    1  UNL1        0.0881
     32 N         143.9532  141.4679  163.8636 N.am    1  UNL1       -0.2515
@<TRIPOS>BOND
     1    22    23    2
     2    23    24    1
     3    24    25    1
     4    25    26    1
     5    26    27   ar
     6    27    28   ar
     7    28    29   ar
     8    29    30   ar
     9    30    31   ar
    10    31    32    1
    11    32    21    1
    12    21    20    1
    13    20     1    1
    14     1     2    1
    15     2     3    1
    16     3     4    1
    17     4     7    1
    18     7     9    1
    19     9    10    1
    20    10    11   ar
    21    11    12   ar
    22    12    13   ar
    23    13    14   ar
    24    14    15   ar
    25    13    16    1
    26    16    17    1
    27    17    18    1
    28    18    19    1
    29     4     5    1
    30     5     6    1
    31    32    23   am
    32     6     1    1
    33    31    26   ar
    34    15    10   ar
    35    19    12    1
    36     7     8    1
@<TRIPOS>MOLECULE
*****
 32 36 0 0 0
SMALL
GASTEIGER

@<TRIPOS>ATOM
      1 N         142.0237  138.0254  164.0776 N.3     1  UNL1       -0.2711
      2 C         142.9223  138.5659  165.1501 C.3     1  UNL1        0.0735
      3 C         144.1063  139.4099  164.7818 C.3     1  UNL1        0.0331
      4 C         144.3917  139.7135  163.3408 C.3     1  UNL1        0.0570
      5 C         143.4932  139.1730  162.2682 C.3     1  UNL1        0.0331
      6 C         142.3091  138.3289  162.6366 C.3     1  UNL1        0.0735
      7 N         145.5757  140.5576  162.9725 N.3     1  UNL1       -0.2934
      8 H         145.6415  140.5443  161.9547 H       1  UNL1        0.1236
      9 C         145.6301  141.9969  163.3912 C.3     1  UNL1        0.1152
     10 C         144.4303  142.8778  163.2058 C.ar    1  UNL1        0.0782
     11 C         143.9109  143.1571  161.8266 C.ar    1  UNL1        0.0562
     12 C         142.7111  144.0380  161.6412 C.ar    1  UNL1        0.1752
     13 C         142.0306  144.6396  162.8349 C.ar    1  UNL1        0.1914
     14 C         142.5500  144.3603  164.2141 C.ar    1  UNL1        0.1384
     15 N         143.7499  143.4794  164.3995 N.ar    1  UNL1       -0.2434
     16 O         140.8308  145.5205  162.6495 O.3     1  UNL1       -0.4668
     17 C         140.3114  145.7999  161.2703 C.3     1  UNL1        0.2527
     18 C         140.9918  145.1982  160.0765 C.3     1  UNL1        0.2526
     19 O         142.1917  144.3173  160.2619 O.3     1  UNL1       -0.4683
     20 C         140.8397  137.1813  164.4460 C.3     1  UNL1        0.0942
     21 C         139.5718  137.8316  164.9146 C.3     1  UNL1        0.1157
     22 O         138.1245  137.7989  162.2869 O.2     1  UNL1       -0.2705
     23 C         138.3915  139.1022  162.9800 C.2     1  UNL1        0.2740
     24 C         137.9348  140.3891  162.3592 C.3     1  UNL1        0.2900
     25 O         138.2018  141.6923  163.0522 O.3     1  UNL1       -0.4643
     26 C         138.9254  141.7087  164.3660 C.ar    1  UNL1        0.1528
     27 C         139.1924  143.0119  165.0590 C.ar    1  UNL1        0.0382
     28 C         139.9160  143.0282  166.3728 C.ar    1  UNL1        0.0032
     29 C         140.3727  141.7414  166.9936 C.ar    1  UNL1        0.0015
     30 C         140.1057  140.4381  166.3006 C.ar    1  UNL1        0.0180
     31 C         139.3821  140.4218  164.9868 C.ar    1  UNL1        0.0881
     32 N         139.1151  139.1185  164.2938 N.am    1  UNL1       -0.2515
@<TRIPOS>BOND
     1    22    23    2
     2    23    24    1
     3    24    25    1
     4    25    26    1
     5    26    27   ar
     6    27    28   ar
     7    28    29   ar
     8    29    30   ar
     9    30    31   ar
    10    31    32    1
    11    32    21    1
    12    21    20    1
    13    20     1    1
    14     1     2    1
    15     2     3    1
    16     3     4    1
    17     4     7    1
    18     7     9    1
    19     9    10    1
    20    10    11   ar
    21    11    12   ar
    22    12    13   ar
    23    13    14   ar
    24    14    15   ar
    25    13    16    1
    26    16    17    1
    27    17    18    1
    28    18    19    1
    29     4     5    1
    30     5     6    1
    31    32    23   am
    32     6     1    1
    33    31    26   ar
    34    15    10   ar
    35    19    12    1
    36     7     8    1
@<TRIPOS>MOLECULE
*****
 32 36 0 0 0
SMALL
GASTEIGER

@<TRIPOS>ATOM
      1 N         140.5677  144.7212  162.9433 N.3     1  UNL1       -0.2711
      2 C         140.8701  144.0989  161.6124 C.3     1  UNL1        0.0735
      3 C         142.2788  143.7180  161.2652 C.3     1  UNL1        0.0331
      4 C         143.3851  143.9595  162.2489 C.3     1  UNL1        0.0570
      5 C         143.0828  144.5818  163.5799 C.3     1  UNL1        0.0331
      6 C         141.6741  144.9626  163.9271 C.3     1  UNL1        0.0735
      7 N         144.7938  143.5786  161.9017 N.3     1  UNL1       -0.2934
      8 H         145.3917  143.9638  162.6329 H       1  UNL1        0.1236
      9 C         145.1655  142.1328  161.7554 C.3     1  UNL1        0.1152
     10 C         144.4653  141.0915  162.5773 C.ar    1  UNL1        0.0782
     11 C         143.3840  140.2530  161.9628 C.ar    1  UNL1        0.0562
     12 C         142.6839  139.2118  162.7847 C.ar    1  UNL1        0.1752
     13 C         143.0650  139.0090  164.2212 C.ar    1  UNL1        0.1914
     14 C         144.1463  139.8474  164.8357 C.ar    1  UNL1        0.1384
     15 N         144.8464  140.8887  164.0138 N.ar    1  UNL1       -0.2434
     16 O         142.3649  137.9677  165.0431 O.3     1  UNL1       -0.4668
     17 C         141.2836  137.1292  164.4285 C.3     1  UNL1        0.2527
     18 C         140.9024  137.3320  162.9920 C.3     1  UNL1        0.2526
     19 O         141.6025  138.3733  162.1700 O.3     1  UNL1       -0.4683
     20 C         139.1590  145.1020  163.2905 C.3     1  UNL1        0.0942
     21 C         138.3783  144.2758  164.2692 C.3     1  UNL1        0.1157
     22 O         137.3547  142.4104  162.1543 O.2     1  UNL1       -0.2705
     23 C         138.1242  141.8696  163.3229 C.2     1  UNL1        0.2740
     24 C         138.3818  140.3961  163.4340 C.3     1  UNL1        0.2900
     25 O         139.1513  139.8552  164.6024 O.3     1  UNL1       -0.4643
     26 C         139.6631  140.7879  165.6599 C.ar    1  UNL1        0.1528
     27 C         140.4325  140.2471  166.8284 C.ar    1  UNL1        0.0382
     28 C         140.9443  141.1797  167.8858 C.ar    1  UNL1        0.0032
     29 C         140.6867  142.6533  167.7748 C.ar    1  UNL1        0.0015
     30 C         139.9172  143.1941  166.6063 C.ar    1  UNL1        0.0180
     31 C         139.4054  142.2614  165.5489 C.ar    1  UNL1        0.0881
     32 N         138.6359  142.8023  164.3803 N.am    1  UNL1       -0.2515
@<TRIPOS>BOND
     1    22    23    2
     2    23    24    1
     3    24    25    1
     4    25    26    1
     5    26    27   ar
     6    27    28   ar
     7    28    29   ar
     8    29    30   ar
     9    30    31   ar
    10    31    32    1
    11    32    21    1
    12    21    20    1
    13    20     1    1
    14     1     2    1
    15     2     3    1
    16     3     4    1
    17     4     7    1
    18     7     9    1
    19     9    10    1
    20    10    11   ar
    21    11    12   ar
    22    12    13   ar
    23    13    14   ar
    24    14    15   ar
    25    13    16    1
    26    16    17    1
    27    17    18    1
    28    18    19    1
    29     4     5    1
    30     5     6    1
    31    32    23   am
    32     6     1    1
    33    31    26   ar
    34    15    10   ar
    35    19    12    1
    36     7     8    1
@<TRIPOS>MOLECULE
*****
 32 36 0 0 0
SMALL
GASTEIGER

@<TRIPOS>ATOM
      1 N         141.4672  138.0319  164.4677 N.3     1  UNL1       -0.2711
      2 C         141.6050  138.1207  162.9768 C.3     1  UNL1        0.0735
      3 C         140.3816  138.2284  162.1156 C.3     1  UNL1        0.0331
      4 C         139.0204  138.2473  162.7453 C.3     1  UNL1        0.0570
      5 C         138.8825  138.1586  164.2364 C.3     1  UNL1        0.0331
      6 C         140.1059  138.0509  165.0976 C.3     1  UNL1        0.0735
      7 N         137.7970  138.3550  161.8841 N.3     1  UNL1       -0.2934
      8 H         137.0007  138.4503  162.5144 H       1  UNL1        0.1236
      9 C         137.6850  139.4591  160.8750 C.3     1  UNL1        0.1152
     10 C         137.9405  140.8791  161.2854 C.ar    1  UNL1        0.0782
     11 C         138.8877  141.7300  160.4925 C.ar    1  UNL1        0.0562
     12 C         139.1432  143.1500  160.9029 C.ar    1  UNL1        0.1752
     13 C         138.4515  143.7190  162.1061 C.ar    1  UNL1        0.1914
     14 C         137.5043  142.8680  162.8989 C.ar    1  UNL1        0.1384
     15 N         137.2488  141.4480  162.4885 N.ar    1  UNL1       -0.2434
     16 O         138.7069  145.1390  162.5165 O.3     1  UNL1       -0.4668
     17 C         139.6541  145.9899  161.7237 C.3     1  UNL1        0.2527
     18 C         140.3459  145.4210  160.5204 C.3     1  UNL1        0.2526
     19 O         140.0904  144.0010  160.1100 O.3     1  UNL1       -0.4683
     20 C         142.6906  137.9242  165.3290 C.3     1  UNL1        0.0942
     21 C         143.2894  139.1570  165.9388 C.3     1  UNL1        0.1157
     22 O         143.2209  138.4479  168.8530 O.2     1  UNL1       -0.2705
     23 C         142.4507  139.6333  168.3512 C.2     1  UNL1        0.2740
     24 C         141.6462  140.4640  169.3065 C.3     1  UNL1        0.2900
     25 O         140.8760  141.6493  168.8048 O.3     1  UNL1       -0.4643
     26 C         140.9102  142.0039  167.3476 C.ar    1  UNL1        0.1528
     27 C         140.1400  143.1892  166.8459 C.ar    1  UNL1        0.0382
     28 C         140.1742  143.5437  165.3888 C.ar    1  UNL1        0.0032
     29 C         140.9787  142.7129  164.4335 C.ar    1  UNL1        0.0015
     30 C         141.7489  141.5276  164.9352 C.ar    1  UNL1        0.0180
     31 C         141.7147  141.1731  166.3923 C.ar    1  UNL1        0.0881
     32 N         142.4849  139.9878  166.8941 N.am    1  UNL1       -0.2515
@<TRIPOS>BOND
     1    22    23    2
     2    23    24    1
     3    24    25    1
     4    25    26    1
     5    26    27   ar
     6    27    28   ar
     7    28    29   ar
     8    29    30   ar
     9    30    31   ar
    10    31    32    1
    11    32    21    1
    12    21    20    1
    13    20     1    1
    14     1     2    1
    15     2     3    1
    16     3     4    1
    17     4     7    1
    18     7     9    1
    19     9    10    1
    20    10    11   ar
    21    11    12   ar
    22    12    13   ar
    23    13    14   ar
    24    14    15   ar
    25    13    16    1
    26    16    17    1
    27    17    18    1
    28    18    19    1
    29     4     5    1
    30     5     6    1
    31    32    23   am
    32     6     1    1
    33    31    26   ar
    34    15    10   ar
    35    19    12    1
    36     7     8    1
@<TRIPOS>MOLECULE
*****
 32 36 0 0 0
SMALL
GASTEIGER

@<TRIPOS>ATOM
      1 N         141.3949  138.9287  165.0649 N.3     1  UNL1       -0.2711
      2 C         139.9354  138.6546  165.2756 C.3     1  UNL1        0.0735
      3 C         139.0267  138.4808  164.0949 C.3     1  UNL1        0.0331
      4 C         139.5776  138.5812  162.7034 C.3     1  UNL1        0.0570
      5 C         141.0373  138.8553  162.4925 C.3     1  UNL1        0.0331
      6 C         141.9459  139.0290  163.6733 C.3     1  UNL1        0.0735
      7 N         138.6690  138.4074  161.5226 N.3     1  UNL1       -0.2934
      8 H         138.1520  137.5413  161.6739 H       1  UNL1        0.1236
      9 C         137.6567  139.4642  161.1934 C.3     1  UNL1        0.1152
     10 C         137.9448  140.9025  161.5067 C.ar    1  UNL1        0.0782
     11 C         138.9356  141.6664  160.6792 C.ar    1  UNL1        0.0562
     12 C         139.2237  143.1047  160.9926 C.ar    1  UNL1        0.1752
     13 C         138.5212  143.7791  162.1334 C.ar    1  UNL1        0.1914
     14 C         137.5305  143.0152  162.9610 C.ar    1  UNL1        0.1384
     15 N         137.2423  141.5769  162.6476 N.ar    1  UNL1       -0.2434
     16 O         138.8094  145.2174  162.4468 O.3     1  UNL1       -0.4668
     17 C         139.8001  145.9814  161.6193 C.3     1  UNL1        0.2527
     18 C         140.5027  145.3070  160.4783 C.3     1  UNL1        0.2526
     19 O         140.2145  143.8687  160.1650 O.3     1  UNL1       -0.4683
     20 C         142.3036  139.1024  166.2456 C.3     1  UNL1        0.0942
     21 C         142.6389  140.4792  166.7378 C.3     1  UNL1        0.1157
     22 O         139.9064  141.3290  167.6386 O.2     1  UNL1       -0.2705
     23 C         140.6175  142.1025  166.5680 C.2     1  UNL1        0.2740
     24 C         139.9623  143.3008  165.9479 C.3     1  UNL1        0.2900
     25 O         140.6733  144.0743  164.8773 O.3     1  UNL1       -0.4643
     26 C         142.0396  143.6495  164.4269 C.ar    1  UNL1        0.1528
     27 C         142.7506  144.4230  163.3563 C.ar    1  UNL1        0.0382
     28 C         144.1168  143.9981  162.9059 C.ar    1  UNL1        0.0032
     29 C         144.7720  142.7997  163.5261 C.ar    1  UNL1        0.0015
     30 C         144.0610  142.0262  164.5966 C.ar    1  UNL1        0.0180
     31 C         142.6948  142.4511  165.0470 C.ar    1  UNL1        0.0881
     32 N         141.9837  141.6776  166.1176 N.am    1  UNL1       -0.2515
@<TRIPOS>BOND
     1    22    23    2
     2    23    24    1
     3    24    25    1
     4    25    26    1
     5    26    27   ar
     6    27    28   ar
     7    28    29   ar
     8    29    30   ar
     9    30    31   ar
    10    31    32    1
    11    32    21    1
    12    21    20    1
    13    20     1    1
    14     1     2    1
    15     2     3    1
    16     3     4    1
    17     4     7    1
    18     7     9    1
    19     9    10    1
    20    10    11   ar
    21    11    12   ar
    22    12    13   ar
    23    13    14   ar
    24    14    15   ar
    25    13    16    1
    26    16    17    1
    27    17    18    1
    28    18    19    1
    29     4     5    1
    30     5     6    1
    31    32    23   am
    32     6     1    1
    33    31    26   ar
    34    15    10   ar
    35    19    12    1
    36     7     8    1
@<TRIPOS>MOLECULE
*****
 32 36 0 0 0
SMALL
GASTEIGER

@<TRIPOS>ATOM
      1 N         142.5316  144.1233  160.5827 N.3     1  UNL1       -0.2711
      2 C         142.7465  144.3690  162.0467 C.3     1  UNL1        0.0735
      3 C         143.8210  143.6247  162.7824 C.3     1  UNL1        0.0331
      4 C         144.6808  142.6346  162.0540 C.3     1  UNL1        0.0570
      5 C         144.4660  142.3888  160.5899 C.3     1  UNL1        0.0331
      6 C         143.3914  143.1332  159.8542 C.3     1  UNL1        0.0735
      7 N         145.7554  141.8903  162.7897 N.3     1  UNL1       -0.2934
      8 H         146.2733  142.5812  163.3326 H       1  UNL1        0.1236
      9 C         145.3894  140.7835  163.7337 C.3     1  UNL1        0.1152
     10 C         144.1983  139.9176  163.4484 C.ar    1  UNL1        0.0782
     11 C         142.9853  139.9975  164.3272 C.ar    1  UNL1        0.0562
     12 C         141.7942  139.1316  164.0420 C.ar    1  UNL1        0.1752
     13 C         141.8160  138.1858  162.8780 C.ar    1  UNL1        0.1914
     14 C         143.0289  138.1059  161.9992 C.ar    1  UNL1        0.1384
     15 N         144.2201  138.9718  162.2844 N.ar    1  UNL1       -0.2434
     16 O         140.6248  137.3199  162.5928 O.3     1  UNL1       -0.4668
     17 C         139.4119  137.3998  163.4716 C.3     1  UNL1        0.2527
     18 C         139.3900  138.3456  164.6356 C.3     1  UNL1        0.2526
     19 O         140.5812  139.2115  164.9209 O.3     1  UNL1       -0.4683
     20 C         141.4570  144.8676  159.8470 C.3     1  UNL1        0.0942
     21 C         140.0735  144.2947  159.7591 C.3     1  UNL1        0.1157
     22 O         140.5815  141.6431  158.4511 O.2     1  UNL1       -0.2705
     23 C         139.9942  141.6989  159.8303 C.2     1  UNL1        0.2740
     24 C         139.6609  140.4288  160.5554 C.3     1  UNL1        0.2900
     25 O         139.0736  140.4845  161.9345 O.3     1  UNL1       -0.4643
     26 C         138.8195  141.8104  162.5885 C.ar    1  UNL1        0.1528
     27 C         138.2322  141.8661  163.9676 C.ar    1  UNL1        0.0382
     28 C         137.9782  143.1919  164.6216 C.ar    1  UNL1        0.0032
     29 C         138.3115  144.4620  163.8964 C.ar    1  UNL1        0.0015
     30 C         138.8988  144.4062  162.5173 C.ar    1  UNL1        0.0180
     31 C         139.1528  143.0804  161.8634 C.ar    1  UNL1        0.0881
     32 N         139.7402  143.0247  160.4842 N.am    1  UNL1       -0.2515
@<TRIPOS>BOND
     1    22    23    2
     2    23    24    1
     3    24    25    1
     4    25    26    1
     5    26    27   ar
     6    27    28   ar
     7    28    29   ar
     8    29    30   ar
     9    30    31   ar
    10    31    32    1
    11    32    21    1
    12    21    20    1
    13    20     1    1
    14     1     2    1
    15     2     3    1
    16     3     4    1
    17     4     7    1
    18     7     9    1
    19     9    10    1
    20    10    11   ar
    21    11    12   ar
    22    12    13   ar
    23    13    14   ar
    24    14    15   ar
    25    13    16    1
    26    16    17    1
    27    17    18    1
    28    18    19    1
    29     4     5    1
    30     5     6    1
    31    32    23   am
    32     6     1    1
    33    31    26   ar
    34    15    10   ar
    35    19    12    1
    36     7     8    1
