@<TRIPOS>MOLECULE
*****
 26 28 0 0 0
SMALL
GASTEIGER

@<TRIPOS>ATOM
      1 C         141.7612  140.9377  166.8942 C.3     1  UNL1        0.0847
      2 F         143.8036  145.3056  163.3235 F       1  UNL1       -0.2042
      3 C         143.2930  144.2137  164.2161 C.ar    1  UNL1        0.1401
      4 C         141.8768  143.7375  164.0838 C.ar    1  UNL1        0.0294
      5 C         141.3662  142.6455  164.9765 C.ar    1  UNL1       -0.0007
      6 C         142.2718  142.0297  166.0015 C.ar    1  UNL1       -0.0073
      7 C         143.6880  142.5059  166.1338 C.ar    1  UNL1       -0.0007
      8 C         144.1986  143.5979  165.2411 C.ar    1  UNL1        0.0294
      9 N         140.9423  141.2791  168.1036 N.3     1  UNL1       -0.2676
     10 C         140.0169  140.2577  168.6955 C.3     1  UNL1        0.0896
     11 C         139.1980  140.5991  169.9050 C.3     1  UNL1        0.0862
     12 N         139.3044  141.9619  170.5225 N.3     1  UNL1       -0.2951
     13 C         140.2298  142.9834  169.9306 C.3     1  UNL1        0.0862
     14 C         141.0487  142.6420  168.7212 C.3     1  UNL1        0.0896
     15 H         139.5973  141.8248  171.4899 H       1  UNL1        0.1233
     16 C         142.0695  139.5044  166.5774 C.3     1  UNL1        0.0499
     17 C         141.4502  138.8515  165.3773 C.ar    1  UNL1        0.0137
     18 C         139.9777  138.5667  165.3548 C.ar    1  UNL1       -0.0012
     19 C         139.3583  137.9138  164.1547 C.ar    1  UNL1       -0.0001
     20 C         140.2115  137.5458  162.9772 C.ar    1  UNL1        0.0031
     21 C         141.6841  137.8306  162.9997 C.ar    1  UNL1        0.0368
     22 C         142.3034  138.4834  164.1998 C.ar    1  UNL1        0.1403
     23 O         143.7759  138.7682  164.2223 O.3     1  UNL1       -0.4240
     24 C         144.2998  140.0546  163.6558 C.3     1  UNL1        0.5086
     25 F         145.7108  140.4786  163.9375 F       1  UNL1       -0.1550
     26 F         143.4127  140.9169  162.8075 F       1  UNL1       -0.1550
@<TRIPOS>BOND
     1     2     3    1
     2     3     4   ar
     3     4     5   ar
     4     5     6   ar
     5     6     1    1
     6     1    16    1
     7    16    17    1
     8    17    18   ar
     9    18    19   ar
    10    19    20   ar
    11    20    21   ar
    12    21    22   ar
    13    22    23    1
    14    23    24    1
    15    24    25    1
    16    24    26    1
    17     1     9    1
    18     9    10    1
    19    10    11    1
    20    11    12    1
    21    12    13    1
    22    13    14    1
    23     6     7   ar
    24     7     8   ar
    25     8     3   ar
    26    22    17   ar
    27    14     9    1
    28    12    15    1
@<TRIPOS>MOLECULE
*****
 26 28 0 0 0
SMALL
GASTEIGER

@<TRIPOS>ATOM
      1 C         141.4636  142.2532  167.2956 C.3     1  UNL1        0.0847
      2 F         136.9194  142.0536  163.3827 F       1  UNL1       -0.2042
      3 C         138.0554  142.1035  164.3609 C.ar    1  UNL1        0.1401
      4 C         138.7673  143.3985  164.6182 C.ar    1  UNL1        0.0294
      5 C         139.9034  143.4484  165.5964 C.ar    1  UNL1       -0.0007
      6 C         140.3275  142.2033  166.3174 C.ar    1  UNL1       -0.0073
      7 C         139.6156  140.9083  166.0601 C.ar    1  UNL1       -0.0007
      8 C         138.4796  140.8584  165.0819 C.ar    1  UNL1        0.0294
      9 N         141.1894  142.1728  168.7681 N.3     1  UNL1       -0.2676
     10 C         140.1958  143.1034  169.3979 C.3     1  UNL1        0.0896
     11 C         139.9217  143.0230  170.8705 C.3     1  UNL1        0.0862
     12 N         140.6411  142.0120  171.7132 N.3     1  UNL1       -0.2951
     13 C         141.6348  141.0814  171.0834 C.3     1  UNL1        0.0862
     14 C         141.9089  141.1617  169.6109 C.3     1  UNL1        0.0896
     15 H         139.9262  141.4289  172.1482 H       1  UNL1        0.1233
     16 C         142.8737  142.3834  166.8013 C.3     1  UNL1        0.0499
     17 C         143.4292  141.3717  165.8433 C.ar    1  UNL1        0.0137
     18 C         143.1427  139.9130  166.0434 C.ar    1  UNL1       -0.0012
     19 C         143.6981  138.9013  165.0853 C.ar    1  UNL1       -0.0001
     20 C         144.5400  139.3482  163.9271 C.ar    1  UNL1        0.0031
     21 C         144.8265  140.8070  163.7269 C.ar    1  UNL1        0.0368
     22 C         144.2711  141.8187  164.6850 C.ar    1  UNL1        0.1403
     23 O         144.5575  143.2774  164.4849 O.3     1  UNL1       -0.4240
     24 C         143.6286  144.1179  163.6598 C.3     1  UNL1        0.5086
     25 F         144.0489  145.4889  163.2196 F       1  UNL1       -0.1550
     26 F         142.2794  143.5874  163.2749 F       1  UNL1       -0.1550
@<TRIPOS>BOND
     1     2     3    1
     2     3     4   ar
     3     4     5   ar
     4     5     6   ar
     5     6     1    1
     6     1    16    1
     7    16    17    1
     8    17    18   ar
     9    18    19   ar
    10    19    20   ar
    11    20    21   ar
    12    21    22   ar
    13    22    23    1
    14    23    24    1
    15    24    25    1
    16    24    26    1
    17     1     9    1
    18     9    10    1
    19    10    11    1
    20    11    12    1
    21    12    13    1
    22    13    14    1
    23     6     7   ar
    24     7     8   ar
    25     8     3   ar
    26    22    17   ar
    27    14     9    1
    28    12    15    1
@<TRIPOS>MOLECULE
*****
 26 28 0 0 0
SMALL
GASTEIGER

@<TRIPOS>ATOM
      1 C         141.4306  141.1495  167.1990 C.3     1  UNL1        0.0847
      2 F         138.3995  136.8722  164.2806 F       1  UNL1       -0.2042
      3 C         139.1572  137.9416  165.0102 C.ar    1  UNL1        0.1401
      4 C         138.4378  138.8607  165.9523 C.ar    1  UNL1        0.0294
      5 C         139.1956  139.9300  166.6819 C.ar    1  UNL1       -0.0007
      6 C         140.6728  140.0802  166.4694 C.ar    1  UNL1       -0.0073
      7 C         141.3922  139.1611  165.5273 C.ar    1  UNL1       -0.0007
      8 C         140.6345  138.0918  164.7977 C.ar    1  UNL1        0.0294
      9 N         141.6413  141.0416  168.6802 N.3     1  UNL1       -0.2676
     10 C         140.8331  141.8901  169.6166 C.3     1  UNL1        0.0896
     11 C         141.0439  141.7822  171.0978 C.3     1  UNL1        0.0862
     12 N         142.0629  140.8258  171.6426 N.3     1  UNL1       -0.2951
     13 C         142.8711  139.9773  170.7062 C.3     1  UNL1        0.0862
     14 C         142.6604  140.0852  169.2251 C.3     1  UNL1        0.0896
     15 H         141.5653  140.1874  172.2633 H       1  UNL1        0.1233
     16 C         141.9776  142.3267  166.4475 C.3     1  UNL1        0.0499
     17 C         141.0622  143.1792  165.6196 C.ar    1  UNL1        0.0137
     18 C         139.7079  143.5541  166.1442 C.ar    1  UNL1       -0.0012
     19 C         138.7925  144.4066  165.3163 C.ar    1  UNL1       -0.0001
     20 C         139.2314  144.8841  163.9639 C.ar    1  UNL1        0.0031
     21 C         140.5858  144.5092  163.4392 C.ar    1  UNL1        0.0368
     22 C         141.5012  143.6568  164.2671 C.ar    1  UNL1        0.1403
     23 O         142.8555  143.2819  163.7425 O.3     1  UNL1       -0.4240
     24 C         143.8931  144.3419  163.5190 C.3     1  UNL1        0.5086
     25 F         144.0289  145.4754  164.4919 F       1  UNL1       -0.1550
     26 F         144.7947  144.2683  162.3225 F       1  UNL1       -0.1550
@<TRIPOS>BOND
     1     2     3    1
     2     3     4   ar
     3     4     5   ar
     4     5     6   ar
     5     6     1    1
     6     1    16    1
     7    16    17    1
     8    17    18   ar
     9    18    19   ar
    10    19    20   ar
    11    20    21   ar
    12    21    22   ar
    13    22    23    1
    14    23    24    1
    15    24    25    1
    16    24    26    1
    17     1     9    1
    18     9    10    1
    19    10    11    1
    20    11    12    1
    21    12    13    1
    22    13    14    1
    23     6     7   ar
    24     7     8   ar
    25     8     3   ar
    26    22    17   ar
    27    14     9    1
    28    12    15    1
@<TRIPOS>MOLECULE
*****
 26 28 0 0 0
SMALL
GASTEIGER

@<TRIPOS>ATOM
      1 C         140.7551  141.6303  166.5924 C.3     1  UNL1        0.0847
      2 F         137.2233  144.6948  162.8327 F       1  UNL1       -0.2042
      3 C         138.1063  143.9287  163.7726 C.ar    1  UNL1        0.1401
      4 C         139.3321  144.5760  164.3456 C.ar    1  UNL1        0.0294
      5 C         140.2150  143.8098  165.2855 C.ar    1  UNL1       -0.0007
      6 C         139.8722  142.3964  165.6524 C.ar    1  UNL1       -0.0073
      7 C         138.6464  141.7492  165.0795 C.ar    1  UNL1       -0.0007
      8 C         137.7634  142.5153  164.1395 C.ar    1  UNL1        0.0294
      9 N         140.4505  141.6126  168.0610 N.3     1  UNL1       -0.2676
     10 C         140.0623  140.3279  168.7310 C.3     1  UNL1        0.0896
     11 C         139.7577  140.3103  170.1997 C.3     1  UNL1        0.0862
     12 N         139.8413  141.5772  170.9983 N.3     1  UNL1       -0.2951
     13 C         140.2295  142.8619  170.3282 C.3     1  UNL1        0.0862
     14 C         140.5341  142.8796  168.8596 C.3     1  UNL1        0.0896
     15 H         140.5231  141.4138  171.7392 H       1  UNL1        0.1233
     16 C         141.9427  140.8819  166.0637 C.3     1  UNL1        0.0499
     17 C         141.7436  139.6991  165.1630 C.ar    1  UNL1        0.0137
     18 C         140.6720  138.6951  165.4692 C.ar    1  UNL1       -0.0012
     19 C         140.4730  137.5123  164.5686 C.ar    1  UNL1       -0.0001
     20 C         141.3454  137.3334  163.3616 C.ar    1  UNL1        0.0031
     21 C         142.4170  138.3373  163.0553 C.ar    1  UNL1        0.0368
     22 C         142.6161  139.5202  163.9560 C.ar    1  UNL1        0.1403
     23 O         143.6877  140.5241  163.6497 O.3     1  UNL1       -0.4240
     24 C         145.0893  140.2962  164.1332 C.3     1  UNL1        0.5086
     25 F         146.1350  141.3515  163.9261 F       1  UNL1       -0.1550
     26 F         145.4451  139.0131  164.8238 F       1  UNL1       -0.1550
@<TRIPOS>BOND
     1     2     3    1
     2     3     4   ar
     3     4     5   ar
     4     5     6   ar
     5     6     1    1
     6     1    16    1
     7    16    17    1
     8    17    18   ar
     9    18    19   ar
    10    19    20   ar
    11    20    21   ar
    12    21    22   ar
    13    22    23    1
    14    23    24    1
    15    24    25    1
    16    24    26    1
    17     1     9    1
    18     9    10    1
    19    10    11    1
    20    11    12    1
    21    12    13    1
    22    13    14    1
    23     6     7   ar
    24     7     8   ar
    25     8     3   ar
    26    22    17   ar
    27    14     9    1
    28    12    15    1
@<TRIPOS>MOLECULE
*****
 26 28 0 0 0
SMALL
GASTEIGER

@<TRIPOS>ATOM
      1 C         140.3805  140.1745  167.4211 C.3     1  UNL1        0.0847
      2 F         145.2094  140.0229  163.8633 F       1  UNL1       -0.2042
      3 C         144.0022  140.0608  164.7528 C.ar    1  UNL1        0.1401
      4 C         143.1224  141.2755  164.7717 C.ar    1  UNL1        0.0294
      5 C         141.9152  141.3134  165.6612 C.ar    1  UNL1       -0.0007
      6 C         141.5877  140.1366  166.5317 C.ar    1  UNL1       -0.0073
      7 C         142.4675  138.9219  166.5128 C.ar    1  UNL1       -0.0007
      8 C         143.6747  138.8840  165.6233 C.ar    1  UNL1        0.0294
      9 N         140.4640  140.8217  168.7717 N.3     1  UNL1       -0.2676
     10 C         140.7519  139.9893  169.9858 C.3     1  UNL1        0.0896
     11 C         140.8354  140.6366  171.3365 C.3     1  UNL1        0.0862
     12 N         140.6309  142.1163  171.4729 N.3     1  UNL1       -0.2951
     13 C         140.3430  142.9487  170.2588 C.3     1  UNL1        0.0862
     14 C         140.2595  142.3015  168.9082 C.3     1  UNL1        0.0896
     15 H         141.4801  142.4933  171.8938 H       1  UNL1        0.1233
     16 C         139.0897  139.5652  166.9600 C.3     1  UNL1        0.0499
     17 C         138.8863  139.2487  165.5080 C.ar    1  UNL1        0.0137
     18 C         139.1821  137.8717  164.9920 C.ar    1  UNL1       -0.0012
     19 C         138.9787  137.5551  163.5399 C.ar    1  UNL1       -0.0001
     20 C         138.4795  138.6156  162.6039 C.ar    1  UNL1        0.0031
     21 C         138.1836  139.9926  163.1199 C.ar    1  UNL1        0.0368
     22 C         138.3870  140.3092  164.5719 C.ar    1  UNL1        0.1403
     23 O         138.0912  141.6862  165.0880 O.3     1  UNL1       -0.4240
     24 C         138.4886  142.8894  164.2852 C.3     1  UNL1        0.5086
     25 F         137.5690  144.0714  164.2001 F       1  UNL1       -0.1550
     26 F         139.8056  142.9106  163.5674 F       1  UNL1       -0.1550
@<TRIPOS>BOND
     1     2     3    1
     2     3     4   ar
     3     4     5   ar
     4     5     6   ar
     5     6     1    1
     6     1    16    1
     7    16    17    1
     8    17    18   ar
     9    18    19   ar
    10    19    20   ar
    11    20    21   ar
    12    21    22   ar
    13    22    23    1
    14    23    24    1
    15    24    25    1
    16    24    26    1
    17     1     9    1
    18     9    10    1
    19    10    11    1
    20    11    12    1
    21    12    13    1
    22    13    14    1
    23     6     7   ar
    24     7     8   ar
    25     8     3   ar
    26    22    17   ar
    27    14     9    1
    28    12    15    1
@<TRIPOS>MOLECULE
*****
 26 28 0 0 0
SMALL
GASTEIGER

@<TRIPOS>ATOM
      1 C         141.5498  140.9622  167.0523 C.3     1  UNL1        0.0847
      2 F         146.1652  141.7573  163.3018 F       1  UNL1       -0.2042
      3 C         145.0113  141.5585  164.2394 C.ar    1  UNL1        0.1401
      4 C         144.5057  142.7074  165.0605 C.ar    1  UNL1        0.0294
      5 C         143.3518  142.5087  165.9981 C.ar    1  UNL1       -0.0007
      6 C         142.7036  141.1610  166.1146 C.ar    1  UNL1       -0.0073
      7 C         143.2093  140.0121  165.2935 C.ar    1  UNL1       -0.0007
      8 C         144.3631  140.2109  164.3559 C.ar    1  UNL1        0.0294
      9 N         141.7745  140.9923  168.5350 N.3     1  UNL1       -0.2676
     10 C         142.6001  139.9250  169.1903 C.3     1  UNL1        0.0896
     11 C         142.8248  139.9551  170.6731 C.3     1  UNL1        0.0862
     12 N         142.2239  141.0525  171.5006 N.3     1  UNL1       -0.2951
     13 C         141.3984  142.1198  170.8453 C.3     1  UNL1        0.0862
     14 C         141.1737  142.0897  169.3626 C.3     1  UNL1        0.0896
     15 H         142.9969  141.5246  171.9696 H       1  UNL1        0.1233
     16 C         140.1713  140.7334  166.5072 C.3     1  UNL1        0.0499
     17 C         139.4762  141.8218  165.7441 C.ar    1  UNL1        0.0137
     18 C         139.8247  143.2580  166.0009 C.ar    1  UNL1       -0.0012
     19 C         139.1297  144.3464  165.2378 C.ar    1  UNL1       -0.0001
     20 C         138.0862  143.9987  164.2180 C.ar    1  UNL1        0.0031
     21 C         137.7377  142.5624  163.9611 C.ar    1  UNL1        0.0368
     22 C         138.4327  141.4740  164.7242 C.ar    1  UNL1        0.1403
     23 O         138.0842  140.0379  164.4674 O.3     1  UNL1       -0.4240
     24 C         138.8712  139.2421  163.4686 C.3     1  UNL1        0.5086
     25 F         140.2972  139.6048  163.1768 F       1  UNL1       -0.1550
     26 F         138.2323  138.0837  162.7616 F       1  UNL1       -0.1550
@<TRIPOS>BOND
     1     2     3    1
     2     3     4   ar
     3     4     5   ar
     4     5     6   ar
     5     6     1    1
     6     1    16    1
     7    16    17    1
     8    17    18   ar
     9    18    19   ar
    10    19    20   ar
    11    20    21   ar
    12    21    22   ar
    13    22    23    1
    14    23    24    1
    15    24    25    1
    16    24    26    1
    17     1     9    1
    18     9    10    1
    19    10    11    1
    20    11    12    1
    21    12    13    1
    22    13    14    1
    23     6     7   ar
    24     7     8   ar
    25     8     3   ar
    26    22    17   ar
    27    14     9    1
    28    12    15    1
@<TRIPOS>MOLECULE
*****
 26 28 0 0 0
SMALL
GASTEIGER

@<TRIPOS>ATOM
      1 C         140.8739  142.3320  165.7324 C.3     1  UNL1        0.0847
      2 F         142.1273  142.2425  171.5994 F       1  UNL1       -0.2042
      3 C         141.8140  142.2649  170.1326 C.ar    1  UNL1        0.1401
      4 C         140.6287  143.0350  169.6306 C.ar    1  UNL1        0.0294
      5 C         140.3154  143.0573  168.1638 C.ar    1  UNL1       -0.0007
      6 C         141.1873  142.3096  167.1992 C.ar    1  UNL1       -0.0073
      7 C         142.3725  141.5395  167.7012 C.ar    1  UNL1       -0.0007
      8 C         142.6859  141.5172  169.1680 C.ar    1  UNL1        0.0294
      9 N         141.5346  143.3401  164.8397 N.3     1  UNL1       -0.2676
     10 C         140.7055  144.3629  164.1209 C.3     1  UNL1        0.0896
     11 C         141.3663  145.3711  163.2281 C.3     1  UNL1        0.0862
     12 N         142.8560  145.3565  163.0541 N.3     1  UNL1       -0.2951
     13 C         143.6851  144.3337  163.7728 C.3     1  UNL1        0.0862
     14 C         143.0245  143.3255  164.6655 C.3     1  UNL1        0.0896
     15 H         143.1960  146.2716  163.3496 H       1  UNL1        0.1233
     16 C         139.8999  141.3462  165.1585 C.3     1  UNL1        0.0499
     17 C         140.3427  139.9463  164.8514 C.ar    1  UNL1        0.0137
     18 C         141.7081  139.6995  164.2818 C.ar    1  UNL1       -0.0012
     19 C         142.1509  138.2996  163.9747 C.ar    1  UNL1       -0.0001
     20 C         141.2281  137.1465  164.2373 C.ar    1  UNL1        0.0031
     21 C         139.8626  137.3933  164.8069 C.ar    1  UNL1        0.0368
     22 C         139.4198  138.7932  165.1140 C.ar    1  UNL1        0.1403
     23 O         138.0544  139.0401  165.6836 O.3     1  UNL1       -0.4240
     24 C         137.7842  138.7601  167.1323 C.3     1  UNL1        0.5086
     25 F         138.5286  139.5148  168.1935 F       1  UNL1       -0.1550
     26 F         136.7696  137.7255  167.5197 F       1  UNL1       -0.1550
@<TRIPOS>BOND
     1     2     3    1
     2     3     4   ar
     3     4     5   ar
     4     5     6   ar
     5     6     1    1
     6     1    16    1
     7    16    17    1
     8    17    18   ar
     9    18    19   ar
    10    19    20   ar
    11    20    21   ar
    12    21    22   ar
    13    22    23    1
    14    23    24    1
    15    24    25    1
    16    24    26    1
    17     1     9    1
    18     9    10    1
    19    10    11    1
    20    11    12    1
    21    12    13    1
    22    13    14    1
    23     6     7   ar
    24     7     8   ar
    25     8     3   ar
    26    22    17   ar
    27    14     9    1
    28    12    15    1
@<TRIPOS>MOLECULE
*****
 26 28 0 0 0
SMALL
GASTEIGER

@<TRIPOS>ATOM
      1 C         140.7698  142.7943  165.4700 C.3     1  UNL1        0.0847
      2 F         146.3402  141.4214  163.7133 F       1  UNL1       -0.2042
      3 C         144.9476  141.7646  164.1525 C.ar    1  UNL1        0.1401
      4 C         144.6563  143.1162  164.7341 C.ar    1  UNL1        0.0294
      5 C         143.2637  143.4594  165.1733 C.ar    1  UNL1       -0.0007
      6 C         142.1624  142.4510  165.0308 C.ar    1  UNL1       -0.0073
      7 C         142.4537  141.0995  164.4492 C.ar    1  UNL1       -0.0007
      8 C         143.8463  140.7563  164.0100 C.ar    1  UNL1        0.0294
      9 N         139.7443  143.2080  164.4565 N.3     1  UNL1       -0.2676
     10 C         139.7895  144.5847  163.8627 C.3     1  UNL1        0.0896
     11 C         138.7640  144.9983  162.8491 C.3     1  UNL1        0.0862
     12 N         137.6933  144.0353  162.4295 N.3     1  UNL1       -0.2951
     13 C         137.6481  142.6586  163.0233 C.3     1  UNL1        0.0862
     14 C         138.6735  142.2449  164.0368 C.3     1  UNL1        0.0896
     15 H         137.7820  143.9179  161.4202 H       1  UNL1        0.1233
     16 C         140.4027  142.7238  166.9226 C.3     1  UNL1        0.0499
     17 C         141.2653  141.9532  167.8777 C.ar    1  UNL1        0.0137
     18 C         142.2185  142.6789  168.7803 C.ar    1  UNL1       -0.0012
     19 C         143.0810  141.9083  169.7353 C.ar    1  UNL1       -0.0001
     20 C         142.9904  140.4120  169.7878 C.ar    1  UNL1        0.0031
     21 C         142.0372  139.6862  168.8852 C.ar    1  UNL1        0.0368
     22 C         141.1746  140.4568  167.9301 C.ar    1  UNL1        0.1403
     23 O         140.2214  139.7311  167.0275 O.3     1  UNL1       -0.4240
     24 C         138.7840  139.5730  167.4262 C.3     1  UNL1        0.5086
     25 F         137.7441  139.2849  166.3843 F       1  UNL1       -0.1550
     26 F         138.3866  139.7031  168.8667 F       1  UNL1       -0.1550
@<TRIPOS>BOND
     1     2     3    1
     2     3     4   ar
     3     4     5   ar
     4     5     6   ar
     5     6     1    1
     6     1    16    1
     7    16    17    1
     8    17    18   ar
     9    18    19   ar
    10    19    20   ar
    11    20    21   ar
    12    21    22   ar
    13    22    23    1
    14    23    24    1
    15    24    25    1
    16    24    26    1
    17     1     9    1
    18     9    10    1
    19    10    11    1
    20    11    12    1
    21    12    13    1
    22    13    14    1
    23     6     7   ar
    24     7     8   ar
    25     8     3   ar
    26    22    17   ar
    27    14     9    1
    28    12    15    1
@<TRIPOS>MOLECULE
*****
 26 28 0 0 0
SMALL
GASTEIGER

@<TRIPOS>ATOM
      1 C         141.2232  140.9139  167.4142 C.3     1  UNL1        0.0847
      2 F         136.9234  141.2123  163.2402 F       1  UNL1       -0.2042
      3 C         137.9984  141.1377  164.2837 C.ar    1  UNL1        0.1401
      4 C         138.9169  142.3039  164.4990 C.ar    1  UNL1        0.0294
      5 C         139.9918  142.2293  165.5425 C.ar    1  UNL1       -0.0007
      6 C         140.1482  140.9885  166.3707 C.ar    1  UNL1       -0.0073
      7 C         139.2297  139.8224  166.1555 C.ar    1  UNL1       -0.0007
      8 C         138.1548  139.8970  165.1119 C.ar    1  UNL1        0.0294
      9 N         140.9381  141.3593  168.8179 N.3     1  UNL1       -0.2676
     10 C         141.1998  140.4314  169.9670 C.3     1  UNL1        0.0896
     11 C         140.9147  140.8768  171.3707 C.3     1  UNL1        0.0862
     12 N         140.3677  142.2501  171.6253 N.3     1  UNL1       -0.2951
     13 C         140.1060  143.1781  170.4762 C.3     1  UNL1        0.0862
     14 C         140.3911  142.7327  169.0725 C.3     1  UNL1        0.0896
     15 H         141.0313  142.7221  172.2396 H       1  UNL1        0.1233
     16 C         142.5833  140.3939  167.0541 C.3     1  UNL1        0.0499
     17 C         143.3650  141.0404  165.9491 C.ar    1  UNL1        0.0137
     18 C         143.6981  142.5011  166.0213 C.ar    1  UNL1       -0.0012
     19 C         144.4798  143.1476  164.9163 C.ar    1  UNL1       -0.0001
     20 C         144.9285  142.3334  163.7392 C.ar    1  UNL1        0.0031
     21 C         144.5954  140.8725  163.6670 C.ar    1  UNL1        0.0368
     22 C         143.8137  140.2261  164.7720 C.ar    1  UNL1        0.1403
     23 O         143.4806  138.7653  164.6998 O.3     1  UNL1       -0.4240
     24 C         142.0994  138.3294  164.3093 C.3     1  UNL1        0.5086
     25 F         141.5923  136.9810  164.7273 F       1  UNL1       -0.1550
     26 F         141.2255  139.2418  163.5009 F       1  UNL1       -0.1550
@<TRIPOS>BOND
     1     2     3    1
     2     3     4   ar
     3     4     5   ar
     4     5     6   ar
     5     6     1    1
     6     1    16    1
     7    16    17    1
     8    17    18   ar
     9    18    19   ar
    10    19    20   ar
    11    20    21   ar
    12    21    22   ar
    13    22    23    1
    14    23    24    1
    15    24    25    1
    16    24    26    1
    17     1     9    1
    18     9    10    1
    19    10    11    1
    20    11    12    1
    21    12    13    1
    22    13    14    1
    23     6     7   ar
    24     7     8   ar
    25     8     3   ar
    26    22    17   ar
    27    14     9    1
    28    12    15    1
