@<TRIPOS>MOLECULE
*****
 38 42 0 0 0
SMALL
GASTEIGER

@<TRIPOS>ATOM
      1 O         143.3534  138.6478  160.6704 O.2     1  UNL1       -0.2733
      2 C         142.2192  138.4656  159.7057 C.2     1  UNL1        0.2425
      3 N         140.8022  138.5262  160.1941 N.am    1  UNL1       -0.3018
      4 H         140.0578  138.4066  159.5611 H       1  UNL1        0.1495
      5 C         140.5195  138.7690  161.6472 C.3     1  UNL1        0.1035
      6 C         140.8129  138.0350  162.9219 C.3     1  UNL1        0.0933
      7 N         140.1196  139.1124  163.7020 N.3     1  UNL1       -0.2711
      8 C         139.8261  139.8464  162.4272 C.3     1  UNL1        0.0933
      9 C         139.8368  139.3552  165.1549 C.3     1  UNL1        0.0578
     10 C         138.5923  138.7982  165.7800 C.3     1  UNL1        0.0187
     11 C         138.3095  139.0410  167.2330 C.3     1  UNL1        0.0331
     12 C         139.2713  139.8408  168.0608 C.3     1  UNL1        0.1140
     13 O         138.2359  139.5233  169.0986 O.3     1  UNL1       -0.3821
     14 C         140.5159  140.3978  167.4356 C.3     1  UNL1        0.0331
     15 C         140.7986  140.1550  165.9827 C.3     1  UNL1        0.0187
     16 H         137.5286  138.9938  168.6983 H       1  UNL1        0.2107
     17 C         139.8735  140.5303  169.2490 C.ar    1  UNL1        0.0518
     18 C         140.0574  139.9358  170.6139 C.ar    1  UNL1        0.1039
     19 N         140.6951  140.9735  171.4894 N.ar    1  UNL1       -0.2350
     20 C         140.9053  142.2094  170.6656 C.ar    1  UNL1        0.1343
     21 S         140.3975  141.9355  169.2811 S.2     1  UNL1       -0.0665
     22 C         142.5019  138.2228  158.2528 C.3     1  UNL1        0.1747
     23 N         143.0332  136.8938  157.8040 N.pl3   1  UNL1       -0.3106
     24 H         143.6376  136.3822  158.3890 H       1  UNL1        0.1486
     25 C         142.6437  136.3442  156.4637 C.ar    1  UNL1        0.1302
     26 N         141.8697  137.1947  155.5005 N.ar    1  UNL1       -0.2293
     27 C         141.4802  136.6451  154.1603 C.ar    1  UNL1        0.1018
     28 C         141.8647  135.2451  153.7833 C.ar    1  UNL1        0.0399
     29 C         142.6387  134.3947  154.7464 C.ar    1  UNL1        0.0855
     30 N         143.0232  132.9947  154.3694 N.ar    1  UNL1       -0.2438
     31 C         143.7971  132.1442  155.3325 C.ar    1  UNL1        0.1027
     32 C         144.1866  132.6938  156.6728 C.ar    1  UNL1        0.0906
     33 C         143.8022  134.0938  157.0499 C.ar    1  UNL1        0.0097
     34 C         143.0282  134.9442  156.0866 C.ar    1  UNL1        0.0491
     35 C         144.9606  131.8434  157.6360 C.3     1  UNL1        0.4200
     36 F         145.7346  130.9930  158.5992 F       1  UNL1       -0.1658
     37 F         144.6965  130.6377  156.7836 F       1  UNL1       -0.1658
     38 F         145.2247  133.0491  158.4883 F       1  UNL1       -0.1658
@<TRIPOS>BOND
     1     1     2    2
     2     2    22    1
     3    22    23    1
     4    23    25    1
     5    25    26   ar
     6    26    27   ar
     7    27    28   ar
     8    28    29   ar
     9    29    30   ar
    10    30    31   ar
    11    31    32   ar
    12    32    35    1
    13    35    36    1
    14    35    37    1
    15    35    38    1
    16    32    33   ar
    17    33    34   ar
    18     2     3   am
    19     3     5    1
    20     5     6    1
    21     6     7    1
    22     9     7    1
    23     9    10    1
    24    10    11    1
    25    11    12    1
    26    12    13    1
    27    12    17    1
    28    17    18   ar
    29    18    19   ar
    30    19    20   ar
    31    20    21   ar
    32    12    14    1
    33    14    15    1
    34     7     8    1
    35    34    25   ar
    36     8     5    1
    37    34    29   ar
    38    15     9    1
    39    21    17   ar
    40    23    24    1
    41     3     4    1
    42    13    16    1
@<TRIPOS>MOLECULE
*****
 38 42 0 0 0
SMALL
GASTEIGER

@<TRIPOS>ATOM
      1 O         143.8524  138.7574  159.6345 O.2     1  UNL1       -0.2733
      2 C         142.5025  138.4705  159.0466 C.2     1  UNL1        0.2425
      3 N         141.2968  138.3994  159.9361 N.am    1  UNL1       -0.3018
      4 H         140.4108  138.2111  159.5503 H       1  UNL1        0.1495
      5 C         141.4410  138.6151  161.4136 C.3     1  UNL1        0.1035
      6 C         141.7216  139.7994  162.2901 C.3     1  UNL1        0.0933
      7 N         141.6450  138.9201  163.5029 N.3     1  UNL1       -0.2711
      8 C         141.3644  137.7356  162.6263 C.3     1  UNL1        0.0933
      9 C         141.7892  139.1357  164.9803 C.3     1  UNL1        0.0578
     10 C         142.9931  138.6062  165.7015 C.3     1  UNL1        0.0187
     11 C         143.1373  138.8218  167.1789 C.3     1  UNL1        0.0331
     12 C         142.0777  139.5670  167.9351 C.3     1  UNL1        0.1140
     13 O         143.0282  139.2591  169.0539 O.3     1  UNL1       -0.3821
     14 C         140.8737  140.0965  167.2138 C.3     1  UNL1        0.0331
     15 C         140.7295  139.8809  165.7364 C.3     1  UNL1        0.0187
     16 H         143.7870  138.7646  168.7066 H       1  UNL1        0.2107
     17 C         141.3481  140.2052  169.0798 C.ar    1  UNL1        0.0518
     18 C         139.8705  140.1396  169.3300 C.ar    1  UNL1        0.1039
     19 N         139.5772  140.9150  170.5801 N.ar    1  UNL1       -0.2350
     20 C         140.8736  141.4599  171.1025 C.ar    1  UNL1        0.1343
     21 S         141.9679  141.0212  170.1752 S.2     1  UNL1       -0.0665
     22 C         142.3583  138.2548  157.5692 C.3     1  UNL1        0.1747
     23 N         143.2534  137.2803  156.8627 N.pl3   1  UNL1       -0.3106
     24 H         144.1630  137.1133  157.2002 H       1  UNL1        0.1486
     25 C         142.7625  136.5602  155.6417 C.ar    1  UNL1        0.1302
     26 N         141.9739  137.2992  154.6015 N.ar    1  UNL1       -0.2293
     27 C         141.4831  136.5791  153.3807 C.ar    1  UNL1        0.1018
     28 C         141.7808  135.1201  153.2000 C.ar    1  UNL1        0.0399
     29 C         142.5694  134.3811  154.2402 C.ar    1  UNL1        0.0855
     30 N         142.8671  132.9221  154.0596 N.ar    1  UNL1       -0.2438
     31 C         143.6556  132.1832  155.0998 C.ar    1  UNL1        0.1027
     32 C         144.1465  132.9032  156.3208 C.ar    1  UNL1        0.0906
     33 C         143.8488  134.3623  156.5014 C.ar    1  UNL1        0.0097
     34 C         143.0602  135.1012  155.4611 C.ar    1  UNL1        0.0491
     35 C         144.9351  132.1643  157.3610 C.3     1  UNL1        0.4200
     36 F         145.7237  131.4253  158.4012 F       1  UNL1       -0.1658
     37 F         144.5727  133.2071  158.3764 F       1  UNL1       -0.1658
     38 F         145.2975  131.1215  156.3455 F       1  UNL1       -0.1658
@<TRIPOS>BOND
     1     1     2    2
     2     2    22    1
     3    22    23    1
     4    23    25    1
     5    25    26   ar
     6    26    27   ar
     7    27    28   ar
     8    28    29   ar
     9    29    30   ar
    10    30    31   ar
    11    31    32   ar
    12    32    35    1
    13    35    36    1
    14    35    37    1
    15    35    38    1
    16    32    33   ar
    17    33    34   ar
    18     2     3   am
    19     3     5    1
    20     5     6    1
    21     6     7    1
    22     9     7    1
    23     9    10    1
    24    10    11    1
    25    11    12    1
    26    12    13    1
    27    12    17    1
    28    17    18   ar
    29    18    19   ar
    30    19    20   ar
    31    20    21   ar
    32    12    14    1
    33    14    15    1
    34     7     8    1
    35    34    25   ar
    36     8     5    1
    37    34    29   ar
    38    15     9    1
    39    21    17   ar
    40    23    24    1
    41     3     4    1
    42    13    16    1
@<TRIPOS>MOLECULE
*****
 38 42 0 0 0
SMALL
GASTEIGER

@<TRIPOS>ATOM
      1 O         141.0364  140.1050  160.0486 O.2     1  UNL1       -0.2733
      2 C         140.2737  138.9372  159.4966 C.2     1  UNL1        0.2425
      3 N         139.4364  138.0898  160.4081 N.am    1  UNL1       -0.3018
      4 H         138.9359  137.3234  160.0457 H       1  UNL1        0.1495
      5 C         139.3618  138.4101  161.8716 C.3     1  UNL1        0.1035
      6 C         138.7185  139.4904  162.6895 C.3     1  UNL1        0.0933
      7 N         139.2564  138.8630  163.9413 N.3     1  UNL1       -0.2711
      8 C         139.8997  137.7827  163.1234 C.3     1  UNL1        0.0933
      9 C         139.1818  139.1833  165.4048 C.3     1  UNL1        0.0578
     10 C         138.0299  138.6822  166.2244 C.3     1  UNL1        0.0187
     11 C         137.9553  139.0024  167.6880 C.3     1  UNL1        0.0331
     12 C         139.0327  139.8238  168.3319 C.3     1  UNL1        0.1140
     13 O         138.1482  139.5783  169.5182 O.3     1  UNL1       -0.3821
     14 C         140.1847  140.3249  167.5122 C.3     1  UNL1        0.0331
     15 C         140.2593  140.0046  166.0487 C.3     1  UNL1        0.0187
     16 H         137.3856  139.0433  169.2477 H       1  UNL1        0.2107
     17 C         139.8029  140.5599  169.3877 C.ar    1  UNL1        0.0518
     18 C         140.1278  140.0484  170.7599 C.ar    1  UNL1        0.1039
     19 N         140.9091  141.1091  171.4770 N.ar    1  UNL1       -0.2350
     20 C         141.0672  142.2762  170.5480 C.ar    1  UNL1        0.1343
     21 S         140.3836  141.9367  169.2568 S.2     1  UNL1       -0.0665
     22 C         140.3483  138.6170  158.0331 C.3     1  UNL1        0.1747
     23 N         139.4924  137.5270  157.4593 N.pl3   1  UNL1       -0.3106
     24 H         138.9520  136.9599  158.0557 H       1  UNL1        0.1486
     25 C         139.4598  137.3010  155.9767 C.ar    1  UNL1        0.1302
     26 N         138.4072  137.9653  155.1397 N.ar    1  UNL1       -0.2293
     27 C         138.3746  137.7393  153.6572 C.ar    1  UNL1        0.1018
     28 C         139.3947  136.8489  153.0117 C.ar    1  UNL1        0.0399
     29 C         140.4473  136.1845  153.8487 C.ar    1  UNL1        0.0855
     30 N         141.4673  135.2941  153.2032 N.ar    1  UNL1       -0.2438
     31 C         142.5199  134.6298  154.0402 C.ar    1  UNL1        0.1027
     32 C         142.5525  134.8558  155.5228 C.ar    1  UNL1        0.0906
     33 C         141.5325  135.7462  156.1683 C.ar    1  UNL1        0.0097
     34 C         140.4798  136.4106  155.3312 C.ar    1  UNL1        0.0491
     35 C         143.6052  134.1914  156.3597 C.3     1  UNL1        0.4200
     36 F         144.6578  133.5270  157.1968 F       1  UNL1       -0.1658
     37 F         143.9092  133.2514  155.2311 F       1  UNL1       -0.1658
     38 F         143.3011  135.1315  157.4883 F       1  UNL1       -0.1658
@<TRIPOS>BOND
     1     1     2    2
     2     2    22    1
     3    22    23    1
     4    23    25    1
     5    25    26   ar
     6    26    27   ar
     7    27    28   ar
     8    28    29   ar
     9    29    30   ar
    10    30    31   ar
    11    31    32   ar
    12    32    35    1
    13    35    36    1
    14    35    37    1
    15    35    38    1
    16    32    33   ar
    17    33    34   ar
    18     2     3   am
    19     3     5    1
    20     5     6    1
    21     6     7    1
    22     9     7    1
    23     9    10    1
    24    10    11    1
    25    11    12    1
    26    12    13    1
    27    12    17    1
    28    17    18   ar
    29    18    19   ar
    30    19    20   ar
    31    20    21   ar
    32    12    14    1
    33    14    15    1
    34     7     8    1
    35    34    25   ar
    36     8     5    1
    37    34    29   ar
    38    15     9    1
    39    21    17   ar
    40    23    24    1
    41     3     4    1
    42    13    16    1
@<TRIPOS>MOLECULE
*****
 38 42 0 0 0
SMALL
GASTEIGER

@<TRIPOS>ATOM
      1 O         139.3914  144.3893  160.0165 O.2     1  UNL1       -0.2733
      2 C         140.5681  145.1867  159.5373 C.2     1  UNL1        0.2425
      3 N         141.7747  145.3440  160.4145 N.am    1  UNL1       -0.3018
      4 H         142.5470  145.8674  160.1001 H       1  UNL1        0.1495
      5 C         141.8045  144.7040  161.7708 C.3     1  UNL1        0.1035
      6 C         141.7268  145.2056  163.1823 C.3     1  UNL1        0.0933
      7 N         141.8467  143.7988  163.6889 N.3     1  UNL1       -0.2711
      8 C         141.9244  143.2972  162.2774 C.3     1  UNL1        0.0933
      9 C         141.8765  143.1588  165.0451 C.3     1  UNL1        0.0578
     10 C         143.1872  142.7702  165.6623 C.3     1  UNL1        0.0187
     11 C         143.2170  142.1301  167.0187 C.3     1  UNL1        0.0331
     12 C         141.9361  141.8786  167.7576 C.3     1  UNL1        0.1140
     13 O         142.9208  141.3374  168.7514 O.3     1  UNL1       -0.3821
     14 C         140.6254  142.2672  167.1403 C.3     1  UNL1        0.0331
     15 C         140.5956  142.9073  165.7841 C.3     1  UNL1        0.0187
     16 H         143.8202  141.4347  168.4013 H       1  UNL1        0.2107
     17 C         140.9972  141.4392  168.8417 C.ar    1  UNL1        0.0518
     18 C         141.0655  141.8434  170.2847 C.ar    1  UNL1        0.1039
     19 N         139.9356  141.1724  171.0079 N.ar    1  UNL1       -0.2350
     20 C         139.1690  140.3535  170.0120 C.ar    1  UNL1        0.1343
     21 S         139.8251  140.5184  168.6733 S.2     1  UNL1       -0.0665
     22 C         140.5383  145.8267  158.1811 C.3     1  UNL1        0.1747
     23 N         139.8518  145.1354  157.0405 N.pl3   1  UNL1       -0.3106
     24 H         139.0039  144.6588  157.1923 H       1  UNL1        0.1486
     25 C         140.4573  145.1704  155.6685 C.ar    1  UNL1        0.1302
     26 N         141.1675  143.9634  155.1312 N.ar    1  UNL1       -0.2293
     27 C         141.7729  143.9984  153.7593 C.ar    1  UNL1        0.1018
     28 C         141.6682  145.2404  152.9247 C.ar    1  UNL1        0.0399
     29 C         140.9581  146.4474  153.4621 C.ar    1  UNL1        0.0855
     30 N         140.8534  147.6894  152.6276 N.ar    1  UNL1       -0.2438
     31 C         140.1433  148.8964  153.1649 C.ar    1  UNL1        0.1027
     32 C         139.5378  148.8615  154.5369 C.ar    1  UNL1        0.0906
     33 C         139.6425  147.6194  155.3714 C.ar    1  UNL1        0.0097
     34 C         140.3527  146.4124  154.8340 C.ar    1  UNL1        0.0491
     35 C         138.8277  150.0685  155.0743 C.3     1  UNL1        0.4200
     36 F         138.1175  151.2756  155.6116 F       1  UNL1       -0.1658
     37 F         138.4494  149.2982  156.3045 F       1  UNL1       -0.1658
     38 F         139.2060  150.8387  153.8440 F       1  UNL1       -0.1658
@<TRIPOS>BOND
     1     1     2    2
     2     2    22    1
     3    22    23    1
     4    23    25    1
     5    25    26   ar
     6    26    27   ar
     7    27    28   ar
     8    28    29   ar
     9    29    30   ar
    10    30    31   ar
    11    31    32   ar
    12    32    35    1
    13    35    36    1
    14    35    37    1
    15    35    38    1
    16    32    33   ar
    17    33    34   ar
    18     2     3   am
    19     3     5    1
    20     5     6    1
    21     6     7    1
    22     9     7    1
    23     9    10    1
    24    10    11    1
    25    11    12    1
    26    12    13    1
    27    12    17    1
    28    17    18   ar
    29    18    19   ar
    30    19    20   ar
    31    20    21   ar
    32    12    14    1
    33    14    15    1
    34     7     8    1
    35    34    25   ar
    36     8     5    1
    37    34    29   ar
    38    15     9    1
    39    21    17   ar
    40    23    24    1
    41     3     4    1
    42    13    16    1
@<TRIPOS>MOLECULE
*****
 38 42 0 0 0
SMALL
GASTEIGER

@<TRIPOS>ATOM
      1 O         142.3327  144.5481  160.3200 O.2     1  UNL1       -0.2733
      2 C         140.8393  144.6824  160.3615 C.2     1  UNL1        0.2425
      3 N         139.9741  143.6338  159.7275 N.am    1  UNL1       -0.3018
      4 H         138.9939  143.7219  159.7547 H       1  UNL1        0.1495
      5 C         140.6024  142.4509  159.0521 C.3     1  UNL1        0.1035
      6 C         140.6657  141.9449  157.6415 C.3     1  UNL1        0.0933
      7 N         141.4909  140.7780  158.0971 N.3     1  UNL1       -0.2711
      8 C         141.4275  141.2840  159.5077 C.3     1  UNL1        0.0933
      9 C         142.1191  139.5951  157.4218 C.3     1  UNL1        0.0578
     10 C         143.2934  139.7890  156.5088 C.3     1  UNL1        0.0187
     11 C         143.9217  138.6061  155.8335 C.3     1  UNL1        0.0331
     12 C         143.3757  137.2294  156.0711 C.3     1  UNL1        0.1140
     13 O         144.4954  136.9062  155.1268 O.3     1  UNL1       -0.3821
     14 C         142.2014  137.0355  156.9841 C.3     1  UNL1        0.0331
     15 C         141.5731  138.2184  157.6594 C.3     1  UNL1        0.0187
     16 H         144.9544  137.7236  154.8776 H       1  UNL1        0.2107
     17 C         143.2186  135.7404  155.9808 C.ar    1  UNL1        0.0518
     18 C         143.2645  134.7776  157.1301 C.ar    1  UNL1        0.1039
     19 N         143.0622  133.3949  156.5849 N.ar    1  UNL1       -0.2350
     20 C         142.8913  133.5032  155.0985 C.ar    1  UNL1        0.1343
     21 S         142.9879  134.9527  154.7252 S.2     1  UNL1       -0.0665
     22 C         140.2111  145.8652  161.0368 C.3     1  UNL1        0.1747
     23 N         139.8547  145.7961  162.4922 N.pl3   1  UNL1       -0.3106
     24 H         139.9911  146.5813  163.0703 H       1  UNL1        0.1486
     25 C         139.2905  144.5306  163.0669 C.ar    1  UNL1        0.1302
     26 N         137.8759  144.1345  162.7636 N.ar    1  UNL1       -0.2293
     27 C         137.3118  142.8690  163.3383 C.ar    1  UNL1        0.1018
     28 C         138.1623  141.9997  164.2163 C.ar    1  UNL1        0.0399
     29 C         139.5768  142.3957  164.5197 C.ar    1  UNL1        0.0855
     30 N         140.4273  141.5264  165.3977 N.ar    1  UNL1       -0.2438
     31 C         141.8418  141.9224  165.7010 C.ar    1  UNL1        0.1027
     32 C         142.4061  143.1880  165.1263 C.ar    1  UNL1        0.0906
     33 C         141.5556  144.0573  164.2483 C.ar    1  UNL1        0.0097
     34 C         140.1410  143.6612  163.9450 C.ar    1  UNL1        0.0491
     35 C         143.8206  143.5840  165.4296 C.3     1  UNL1        0.4200
     36 F         145.2353  143.9801  165.7330 F       1  UNL1       -0.1658
     37 F         143.7319  144.6812  164.4107 F       1  UNL1       -0.1658
     38 F         143.9094  142.4868  166.4485 F       1  UNL1       -0.1658
@<TRIPOS>BOND
     1     1     2    2
     2     2    22    1
     3    22    23    1
     4    23    25    1
     5    25    26   ar
     6    26    27   ar
     7    27    28   ar
     8    28    29   ar
     9    29    30   ar
    10    30    31   ar
    11    31    32   ar
    12    32    35    1
    13    35    36    1
    14    35    37    1
    15    35    38    1
    16    32    33   ar
    17    33    34   ar
    18     2     3   am
    19     3     5    1
    20     5     6    1
    21     6     7    1
    22     9     7    1
    23     9    10    1
    24    10    11    1
    25    11    12    1
    26    12    13    1
    27    12    17    1
    28    17    18   ar
    29    18    19   ar
    30    19    20   ar
    31    20    21   ar
    32    12    14    1
    33    14    15    1
    34     7     8    1
    35    34    25   ar
    36     8     5    1
    37    34    29   ar
    38    15     9    1
    39    21    17   ar
    40    23    24    1
    41     3     4    1
    42    13    16    1
@<TRIPOS>MOLECULE
*****
 38 42 0 0 0
SMALL
GASTEIGER

@<TRIPOS>ATOM
      1 O         139.7950  145.8853  160.2166 O.2     1  UNL1       -0.2733
      2 C         140.9150  145.4353  159.3259 C.2     1  UNL1        0.2425
      3 N         141.9937  144.5456  159.8688 N.am    1  UNL1       -0.3018
      4 H         142.7288  144.2503  159.2843 H       1  UNL1        0.1495
      5 C         141.9524  144.1057  161.3023 C.3     1  UNL1        0.1035
      6 C         142.3031  144.7382  162.6164 C.3     1  UNL1        0.0933
      7 N         141.8939  143.4836  163.3295 N.3     1  UNL1       -0.2711
      8 C         141.5432  142.8511  162.0154 C.3     1  UNL1        0.0933
      9 C         141.8525  143.0437  164.7630 C.3     1  UNL1        0.0578
     10 C         143.0516  142.3879  165.3811 C.3     1  UNL1        0.0187
     11 C         143.0102  141.9480  166.8146 C.3     1  UNL1        0.0331
     12 C         141.7699  142.1639  167.6299 C.3     1  UNL1        0.1140
     13 O         142.6435  141.5034  168.6548 O.3     1  UNL1       -0.3821
     14 C         140.5708  142.8199  167.0117 C.3     1  UNL1        0.0331
     15 C         140.6121  143.2597  165.5783 C.3     1  UNL1        0.0187
     16 H         143.5058  141.2983  168.2607 H       1  UNL1        0.2107
     17 C         140.8329  142.1505  168.8011 C.ar    1  UNL1        0.0518
     18 C         139.9689  141.0003  169.2259 C.ar    1  UNL1        0.1039
     19 N         139.1974  141.4239  170.4406 N.ar    1  UNL1       -0.2350
     20 C         139.5846  142.8360  170.7665 C.ar    1  UNL1        0.1343
     21 S         140.5954  143.2850  169.7532 S.2     1  UNL1       -0.0665
     22 C         140.9563  145.8752  157.8925 C.3     1  UNL1        0.1747
     23 N         140.8322  144.8622  156.7932 N.pl3   1  UNL1       -0.3106
     24 H         141.6411  144.4777  156.3845 H       1  UNL1        0.1486
     25 C         139.4756  144.4349  156.3168 C.ar    1  UNL1        0.1302
     26 N         138.7390  145.2654  155.3080 N.ar    1  UNL1       -0.2293
     27 C         137.3824  144.8381  154.8316 C.ar    1  UNL1        0.1018
     28 C         136.7624  143.5802  155.3639 C.ar    1  UNL1        0.0399
     29 C         137.4990  142.7497  156.3727 C.ar    1  UNL1        0.0855
     30 N         136.8789  141.4918  156.9050 N.ar    1  UNL1       -0.2438
     31 C         137.6155  140.6613  157.9138 C.ar    1  UNL1        0.1027
     32 C         138.9722  141.0886  158.3903 C.ar    1  UNL1        0.0906
     33 C         139.5922  142.3465  157.8579 C.ar    1  UNL1        0.0097
     34 C         138.8555  143.1770  156.8491 C.ar    1  UNL1        0.0491
     35 C         139.7088  140.2581  159.3990 C.3     1  UNL1        0.4200
     36 F         140.4453  139.4275  160.4078 F       1  UNL1       -0.1658
     37 F         140.9319  141.1037  159.2022 F       1  UNL1       -0.1658
     38 F         138.4856  139.4124  159.5959 F       1  UNL1       -0.1658
@<TRIPOS>BOND
     1     1     2    2
     2     2    22    1
     3    22    23    1
     4    23    25    1
     5    25    26   ar
     6    26    27   ar
     7    27    28   ar
     8    28    29   ar
     9    29    30   ar
    10    30    31   ar
    11    31    32   ar
    12    32    35    1
    13    35    36    1
    14    35    37    1
    15    35    38    1
    16    32    33   ar
    17    33    34   ar
    18     2     3   am
    19     3     5    1
    20     5     6    1
    21     6     7    1
    22     9     7    1
    23     9    10    1
    24    10    11    1
    25    11    12    1
    26    12    13    1
    27    12    17    1
    28    17    18   ar
    29    18    19   ar
    30    19    20   ar
    31    20    21   ar
    32    12    14    1
    33    14    15    1
    34     7     8    1
    35    34    25   ar
    36     8     5    1
    37    34    29   ar
    38    15     9    1
    39    21    17   ar
    40    23    24    1
    41     3     4    1
    42    13    16    1
@<TRIPOS>MOLECULE
*****
 38 42 0 0 0
SMALL
GASTEIGER

@<TRIPOS>ATOM
      1 O         139.7847  138.5041  159.9177 O.2     1  UNL1       -0.2733
      2 C         139.1144  139.6947  159.2987 C.2     1  UNL1        0.2425
      3 N         138.6197  140.8128  160.1677 N.am    1  UNL1       -0.3018
      4 H         138.1798  141.5943  159.7614 H       1  UNL1        0.1495
      5 C         138.7953  140.7403  161.6556 C.3     1  UNL1        0.1035
      6 C         139.9525  140.4881  162.5760 C.3     1  UNL1        0.0933
      7 N         139.0436  140.6377  163.7599 N.3     1  UNL1       -0.2711
      8 C         137.8863  140.8899  162.8394 C.3     1  UNL1        0.0933
      9 C         139.2191  140.5652  165.2478 C.3     1  UNL1        0.0578
     10 C         138.5098  139.5041  166.0358 C.3     1  UNL1        0.0187
     11 C         138.6854  139.4316  167.5238 C.3     1  UNL1        0.0331
     12 C         139.5702  140.4201  168.2237 C.3     1  UNL1        0.1140
     13 O         139.1130  139.6039  169.3962 O.3     1  UNL1       -0.3821
     14 C         140.2795  141.4813  167.4356 C.3     1  UNL1        0.0331
     15 C         140.1039  141.5538  165.9477 C.3     1  UNL1        0.0187
     16 H         138.5159  138.9037  169.0895 H       1  UNL1        0.2107
     17 C         140.2962  141.1252  169.3307 C.ar    1  UNL1        0.0518
     18 C         139.7186  142.1703  170.2386 C.ar    1  UNL1        0.1039
     19 N         140.7928  142.6000  171.1933 N.ar    1  UNL1       -0.2350
     20 C         142.0343  141.8204  170.8754 C.ar    1  UNL1        0.1343
     21 S         141.7274  140.9090  169.7244 S.2     1  UNL1       -0.0665
     22 C         138.9388  139.7672  157.8108 C.3     1  UNL1        0.1747
     23 N         139.7059  138.8366  156.9189 N.pl3   1  UNL1       -0.3106
     24 H         139.2581  138.0552  156.5211 H       1  UNL1        0.1486
     25 C         141.1553  139.0965  156.6329 C.ar    1  UNL1        0.1302
     26 N         141.6939  140.4948  156.6994 N.ar    1  UNL1       -0.2293
     27 C         143.1433  140.7546  156.4135 C.ar    1  UNL1        0.1018
     28 C         144.0541  139.6161  156.0611 C.ar    1  UNL1        0.0399
     29 C         143.5155  138.2177  155.9946 C.ar    1  UNL1        0.0855
     30 N         144.4263  137.0792  155.6422 N.ar    1  UNL1       -0.2438
     31 C         143.8877  135.6808  155.5757 C.ar    1  UNL1        0.1027
     32 C         142.4383  135.4209  155.8616 C.ar    1  UNL1        0.0906
     33 C         141.5275  136.5595  156.2141 C.ar    1  UNL1        0.0097
     34 C         142.0661  137.9579  156.2805 C.ar    1  UNL1        0.0491
     35 C         141.8997  134.0226  155.7952 C.3     1  UNL1        0.4200
     36 F         141.3611  132.6241  155.7287 F       1  UNL1       -0.1658
     37 F         141.1176  134.3822  154.5668 F       1  UNL1       -0.1658
     38 F         142.6818  133.6630  157.0235 F       1  UNL1       -0.1658
@<TRIPOS>BOND
     1     1     2    2
     2     2    22    1
     3    22    23    1
     4    23    25    1
     5    25    26   ar
     6    26    27   ar
     7    27    28   ar
     8    28    29   ar
     9    29    30   ar
    10    30    31   ar
    11    31    32   ar
    12    32    35    1
    13    35    36    1
    14    35    37    1
    15    35    38    1
    16    32    33   ar
    17    33    34   ar
    18     2     3   am
    19     3     5    1
    20     5     6    1
    21     6     7    1
    22     9     7    1
    23     9    10    1
    24    10    11    1
    25    11    12    1
    26    12    13    1
    27    12    17    1
    28    17    18   ar
    29    18    19   ar
    30    19    20   ar
    31    20    21   ar
    32    12    14    1
    33    14    15    1
    34     7     8    1
    35    34    25   ar
    36     8     5    1
    37    34    29   ar
    38    15     9    1
    39    21    17   ar
    40    23    24    1
    41     3     4    1
    42    13    16    1
@<TRIPOS>MOLECULE
*****
 38 42 0 0 0
SMALL
GASTEIGER

@<TRIPOS>ATOM
      1 O         144.2258  139.4389  159.7897 O.2     1  UNL1       -0.2733
      2 C         143.8862  140.4757  158.7602 C.2     1  UNL1        0.2425
      3 N         143.3214  140.0593  157.4344 N.am    1  UNL1       -0.3018
      4 H         143.0985  140.7397  156.7587 H       1  UNL1        0.1495
      5 C         143.0960  138.6062  157.1382 C.3     1  UNL1        0.1035
      6 C         142.3418  137.4928  157.8026 C.3     1  UNL1        0.0933
      7 N         142.7774  136.5512  156.7193 N.3     1  UNL1       -0.2711
      8 C         143.5318  137.6646  156.0549 C.3     1  UNL1        0.0933
      9 C         142.5522  135.0981  156.4231 C.3     1  UNL1        0.0578
     10 C         141.5054  134.6887  155.4298 C.3     1  UNL1        0.0187
     11 C         141.2801  133.2356  155.1336 C.3     1  UNL1        0.0331
     12 C         142.1016  132.1919  155.8306 C.3     1  UNL1        0.1140
     13 O         141.2356  131.3142  154.9764 O.3     1  UNL1       -0.3821
     14 C         143.1484  132.6013  156.8239 C.3     1  UNL1        0.0331
     15 C         143.3737  134.0544  157.1201 C.3     1  UNL1        0.0187
     16 H         140.6335  131.8655  154.4525 H       1  UNL1        0.2107
     17 C         142.6223  130.8434  156.2310 C.ar    1  UNL1        0.0518
     18 C         143.4726  130.5472  157.4307 C.ar    1  UNL1        0.1039
     19 N         143.7600  129.0751  157.4431 N.ar    1  UNL1       -0.2350
     20 C         143.0874  128.4614  156.2510 C.ar    1  UNL1        0.1343
     21 S         142.3843  129.5543  155.5019 S.2     1  UNL1       -0.0665
     22 C         144.1116  141.9287  159.0564 C.3     1  UNL1        0.1747
     23 N         143.3564  142.5932  160.1692 N.pl3   1  UNL1       -0.3106
     24 H         142.5556  143.1297  159.9689 H       1  UNL1        0.1486
     25 C         143.8216  142.4403  161.5871 C.ar    1  UNL1        0.1302
     26 N         145.2081  141.9441  161.8722 N.ar    1  UNL1       -0.2293
     27 C         145.6731  141.7913  163.2900 C.ar    1  UNL1        0.1018
     28 C         144.7517  142.1346  164.4227 C.ar    1  UNL1        0.0399
     29 C         143.3652  142.6308  164.1376 C.ar    1  UNL1        0.0855
     30 N         142.4437  142.9741  165.2703 N.ar    1  UNL1       -0.2438
     31 C         141.0572  143.4703  164.9852 C.ar    1  UNL1        0.1027
     32 C         140.5921  143.6232  163.5673 C.ar    1  UNL1        0.0906
     33 C         141.5136  143.2799  162.4346 C.ar    1  UNL1        0.0097
     34 C         142.9001  142.7837  162.7198 C.ar    1  UNL1        0.0491
     35 C         139.2056  144.1194  163.2822 C.3     1  UNL1        0.4200
     36 F         137.8190  144.6156  162.9971 F       1  UNL1       -0.1658
     37 F         139.7408  145.5083  163.0965 F       1  UNL1       -0.1658
     38 F         138.6704  142.7306  163.4679 F       1  UNL1       -0.1658
@<TRIPOS>BOND
     1     1     2    2
     2     2    22    1
     3    22    23    1
     4    23    25    1
     5    25    26   ar
     6    26    27   ar
     7    27    28   ar
     8    28    29   ar
     9    29    30   ar
    10    30    31   ar
    11    31    32   ar
    12    32    35    1
    13    35    36    1
    14    35    37    1
    15    35    38    1
    16    32    33   ar
    17    33    34   ar
    18     2     3   am
    19     3     5    1
    20     5     6    1
    21     6     7    1
    22     9     7    1
    23     9    10    1
    24    10    11    1
    25    11    12    1
    26    12    13    1
    27    12    17    1
    28    17    18   ar
    29    18    19   ar
    30    19    20   ar
    31    20    21   ar
    32    12    14    1
    33    14    15    1
    34     7     8    1
    35    34    25   ar
    36     8     5    1
    37    34    29   ar
    38    15     9    1
    39    21    17   ar
    40    23    24    1
    41     3     4    1
    42    13    16    1
@<TRIPOS>MOLECULE
*****
 38 42 0 0 0
SMALL
GASTEIGER

@<TRIPOS>ATOM
      1 O         142.4381  140.2899  160.2518 O.2     1  UNL1       -0.2733
      2 C         141.7251  139.1412  159.6019 C.2     1  UNL1        0.2425
      3 N         140.7786  138.2965  160.4023 N.am    1  UNL1       -0.3018
      4 H         140.3106  137.5426  159.9758 H       1  UNL1        0.1495
      5 C         140.5451  138.6005  161.8526 C.3     1  UNL1        0.1035
      6 C         140.8658  137.9115  163.1457 C.3     1  UNL1        0.0933
      7 N         140.2148  139.0305  163.9034 N.3     1  UNL1       -0.2711
      8 C         139.8941  139.7195  162.6102 C.3     1  UNL1        0.0933
      9 C         139.9813  139.3345  165.3536 C.3     1  UNL1        0.0578
     10 C         138.7151  138.8842  166.0198 C.3     1  UNL1        0.0187
     11 C         138.4815  139.1882  167.4700 C.3     1  UNL1        0.0331
     12 C         139.5142  139.9426  168.2540 C.3     1  UNL1        0.1140
     13 O         138.4822  139.7284  169.3212 O.3     1  UNL1       -0.3821
     14 C         140.7805  140.3929  167.5876 C.3     1  UNL1        0.0331
     15 C         141.0140  140.0889  166.1375 C.3     1  UNL1        0.0187
     16 H         137.7313  139.2382  168.9512 H       1  UNL1        0.2107
     17 C         140.1885  140.6225  169.4085 C.ar    1  UNL1        0.0518
     18 C         139.9236  142.0197  169.8858 C.ar    1  UNL1        0.1039
     19 N         140.8174  142.2854  171.0607 N.ar    1  UNL1       -0.2350
     20 C         141.6347  141.0523  171.3096 C.ar    1  UNL1        0.1343
     21 S         141.2459  140.0247  170.2885 S.2     1  UNL1       -0.0665
     22 C         141.9586  138.8373  158.1518 C.3     1  UNL1        0.1747
     23 N         143.3555  138.8146  157.6057 N.pl3   1  UNL1       -0.3106
     24 H         144.1164  138.6451  158.2070 H       1  UNL1        0.1486
     25 C         143.5931  139.0501  156.1434 C.ar    1  UNL1        0.1302
     26 N         142.8372  138.2521  155.1227 N.ar    1  UNL1       -0.2293
     27 C         143.0748  138.4877  153.6605 C.ar    1  UNL1        0.1018
     28 C         144.0682  139.5212  153.2190 C.ar    1  UNL1        0.0399
     29 C         144.8241  140.3192  154.2397 C.ar    1  UNL1        0.0855
     30 N         145.8175  141.3528  153.7983 N.ar    1  UNL1       -0.2438
     31 C         146.5733  142.1508  154.8190 C.ar    1  UNL1        0.1027
     32 C         146.3357  141.9152  156.2812 C.ar    1  UNL1        0.0906
     33 C         145.3423  140.8817  156.7227 C.ar    1  UNL1        0.0097
     34 C         144.5865  140.0836  155.7019 C.ar    1  UNL1        0.0491
     35 C         147.0916  142.7132  157.3019 C.3     1  UNL1        0.4200
     36 F         147.8475  143.5112  158.3227 F       1  UNL1       -0.1658
     37 F         145.8762  142.7404  158.1806 F       1  UNL1       -0.1658
     38 F         148.3069  142.6860  156.4233 F       1  UNL1       -0.1658
@<TRIPOS>BOND
     1     1     2    2
     2     2    22    1
     3    22    23    1
     4    23    25    1
     5    25    26   ar
     6    26    27   ar
     7    27    28   ar
     8    28    29   ar
     9    29    30   ar
    10    30    31   ar
    11    31    32   ar
    12    32    35    1
    13    35    36    1
    14    35    37    1
    15    35    38    1
    16    32    33   ar
    17    33    34   ar
    18     2     3   am
    19     3     5    1
    20     5     6    1
    21     6     7    1
    22     9     7    1
    23     9    10    1
    24    10    11    1
    25    11    12    1
    26    12    13    1
    27    12    17    1
    28    17    18   ar
    29    18    19   ar
    30    19    20   ar
    31    20    21   ar
    32    12    14    1
    33    14    15    1
    34     7     8    1
    35    34    25   ar
    36     8     5    1
    37    34    29   ar
    38    15     9    1
    39    21    17   ar
    40    23    24    1
    41     3     4    1
    42    13    16    1
