@<TRIPOS>MOLECULE
*****
 33 34 0 0 0
SMALL
GASTEIGER

@<TRIPOS>ATOM
      1 C         137.9069  141.3624  162.1971 C.3     1  UNL1        0.1700
      2 O         136.6578  141.1004  162.9851 O.3     1  UNL1       -0.3793
      3 H         136.0201  141.8139  162.8269 H       1  UNL1        0.2106
      4 C         138.0080  142.5872  161.3371 C.3     1  UNL1        0.1056
      5 N         138.6037  143.8467  161.8927 N.3     1  UNL1       -0.2702
      6 C         137.9317  144.5555  163.0311 C.3     1  UNL1        0.0722
      7 C         137.9326  143.9436  164.4006 C.3     1  UNL1        0.0173
      8 C         139.9736  143.1096  165.7749 C.3     1  UNL1        0.0000
      9 C         139.0636  144.2221  165.3459 C.3     1  UNL1        0.0014
     10 C         139.8714  144.3975  161.3098 C.3     1  UNL1        0.0769
     11 C         140.9656  144.8799  162.2153 C.3     1  UNL1        0.0437
     12 C         141.9545  143.9048  162.7822 C.ar    1  UNL1       -0.0199
     13 C         142.0395  142.5142  162.2265 C.ar    1  UNL1       -0.0033
     14 C         143.0283  141.5392  162.7935 C.ar    1  UNL1        0.0119
     15 C         143.9322  141.9548  163.9161 C.ar    1  UNL1        0.0682
     16 CL        144.9211  140.9797  164.4831 Cl      1  UNL1       -0.0814
     17 C         143.8472  143.3454  164.4718 C.ar    1  UNL1        0.0679
     18 CL        144.7510  143.7611  165.5945 Cl      1  UNL1       -0.0814
     19 C         142.8583  144.3204  163.9049 C.ar    1  UNL1        0.0080
     20 C         139.0549  140.3997  162.2690 C.3     1  UNL1        0.2358
     21 O         138.9970  139.2323  163.2091 O.3     1  UNL1       -0.4728
     22 C         139.4154  139.4000  164.6398 C.ar    1  UNL1        0.1388
     23 C         138.3785  139.4625  165.7220 C.ar    1  UNL1        0.0382
     24 C         138.7969  139.6302  167.1527 C.ar    1  UNL1        0.0190
     25 C         140.2521  139.7354  167.5012 C.ar    1  UNL1        0.0646
     26 C         141.2889  139.6728  166.4190 C.ar    1  UNL1        0.0190
     27 C         140.8705  139.5051  164.9883 C.ar    1  UNL1        0.0382
     28 N         140.6705  139.9031  168.9318 N.pl3   1  UNL1       -0.2187
     29 H         141.2696  139.2433  169.3501 H       1  UNL1        0.1734
     30 S         140.1760  141.0761  169.7253 S.O2    1  UNL1        0.0558
     31 C         139.6814  142.2491  170.5187 C.3     1  UNL1        0.1996
     32 O         141.0685  141.9868  168.9353 O.2     1  UNL1       -0.1544
     33 O         139.2834  140.1655  170.5153 O.2     1  UNL1       -0.1544
@<TRIPOS>BOND
     1     8     9    1
     2     9     7    1
     3     7     6    1
     4     6     5    1
     5     5    10    1
     6    10    11    1
     7    11    12    1
     8    12    13   ar
     9    13    14   ar
    10    14    15   ar
    11    15    16    1
    12    15    17   ar
    13    17    18    1
    14    17    19   ar
    15     5     4    1
    16     4     1    1
    17     1     2    1
    18     1    20    1
    19    20    21    1
    20    21    22    1
    21    22    23   ar
    22    23    24   ar
    23    24    25   ar
    24    25    28    1
    25    28    30    1
    26    30    31    1
    27    30    32    2
    28    30    33    2
    29    25    26   ar
    30    26    27   ar
    31    19    12   ar
    32    27    22   ar
    33     2     3    1
    34    28    29    1
@<TRIPOS>MOLECULE
*****
 33 34 0 0 0
SMALL
GASTEIGER

@<TRIPOS>ATOM
      1 C         145.2619  141.2257  163.1303 C.3     1  UNL1        0.1700
      2 O         146.3451  141.6549  164.0749 O.3     1  UNL1       -0.3793
      3 H         146.2932  141.1276  164.8874 H       1  UNL1        0.2106
      4 C         144.3149  140.1307  163.5229 C.3     1  UNL1        0.1056
      5 N         143.4067  140.3119  164.7028 N.3     1  UNL1       -0.2702
      6 C         142.6810  141.6100  164.8984 C.3     1  UNL1        0.0722
      7 C         141.2078  141.6936  164.6289 C.3     1  UNL1        0.0173
      8 C         140.6392  141.6824  167.1640 C.3     1  UNL1        0.0000
      9 C         140.2275  141.4569  165.7394 C.3     1  UNL1        0.0014
     10 C         143.2241  139.1949  165.6873 C.3     1  UNL1        0.0769
     11 C         142.5642  137.9179  165.2587 C.3     1  UNL1        0.0437
     12 C         141.3398  137.9601  164.3931 C.ar    1  UNL1       -0.0199
     13 C         139.9772  137.9213  165.0188 C.ar    1  UNL1       -0.0033
     14 C         138.7529  137.9635  164.1532 C.ar    1  UNL1        0.0119
     15 C         138.8914  138.0446  162.6618 C.ar    1  UNL1        0.0682
     16 CL        137.6670  138.0868  161.7961 Cl      1  UNL1       -0.0814
     17 C         140.2540  138.0835  162.0360 C.ar    1  UNL1        0.0679
     18 CL        140.3924  138.1646  160.5446 Cl      1  UNL1       -0.0814
     19 C         141.4782  138.0412  162.9017 C.ar    1  UNL1        0.0080
     20 C         145.1257  141.8915  161.7931 C.3     1  UNL1        0.2358
     21 O         144.8480  143.3634  161.7129 O.3     1  UNL1       -0.4728
     22 C         143.5071  143.8971  162.1217 C.ar    1  UNL1        0.1388
     23 C         143.3979  144.8416  163.2820 C.ar    1  UNL1        0.0382
     24 C         142.0570  145.3753  163.6908 C.ar    1  UNL1        0.0190
     25 C         140.8254  144.9645  162.9395 C.ar    1  UNL1        0.0646
     26 C         140.9347  144.0200  161.7793 C.ar    1  UNL1        0.0190
     27 C         142.2756  143.4863  161.3704 C.ar    1  UNL1        0.0382
     28 N         139.4845  145.4981  163.3483 N.pl3   1  UNL1       -0.2187
     29 H         139.2757  146.4522  163.2242 H       1  UNL1        0.1734
     30 S         138.4616  144.5781  163.9463 S.O2    1  UNL1        0.0558
     31 C         137.4388  143.6582  164.5442 C.3     1  UNL1        0.1996
     32 O         139.1402  144.6900  165.2793 O.2     1  UNL1       -0.1544
     33 O         137.7830  144.4662  162.6133 O.2     1  UNL1       -0.1544
@<TRIPOS>BOND
     1     8     9    1
     2     9     7    1
     3     7     6    1
     4     6     5    1
     5     5    10    1
     6    10    11    1
     7    11    12    1
     8    12    13   ar
     9    13    14   ar
    10    14    15   ar
    11    15    16    1
    12    15    17   ar
    13    17    18    1
    14    17    19   ar
    15     5     4    1
    16     4     1    1
    17     1     2    1
    18     1    20    1
    19    20    21    1
    20    21    22    1
    21    22    23   ar
    22    23    24   ar
    23    24    25   ar
    24    25    28    1
    25    28    30    1
    26    30    31    1
    27    30    32    2
    28    30    33    2
    29    25    26   ar
    30    26    27   ar
    31    19    12   ar
    32    27    22   ar
    33     2     3    1
    34    28    29    1
@<TRIPOS>MOLECULE
*****
 33 34 0 0 0
SMALL
GASTEIGER

@<TRIPOS>ATOM
      1 C         140.2912  137.7039  163.7067 C.3     1  UNL1        0.1700
      2 O         141.3211  136.9515  162.9175 O.3     1  UNL1       -0.3793
      3 H         142.2077  137.2033  163.2199 H       1  UNL1        0.2106
      4 C         140.7202  138.6682  164.7726 C.3     1  UNL1        0.1056
      5 N         142.1037  139.2473  164.7473 N.3     1  UNL1       -0.2702
      6 C         142.4206  140.3929  163.8324 C.3     1  UNL1        0.0722
      7 C         141.3945  141.4575  163.5806 C.3     1  UNL1        0.0173
      8 C         139.7994  142.1947  165.4943 C.3     1  UNL1        0.0000
      9 C         141.0319  142.4225  164.6703 C.3     1  UNL1        0.0014
     10 C         143.1703  138.6807  165.6369 C.3     1  UNL1        0.0769
     11 C         143.0392  138.7883  167.1273 C.3     1  UNL1        0.0437
     12 C         142.3772  139.9883  167.7372 C.ar    1  UNL1       -0.0199
     13 C         143.0064  141.3429  167.5997 C.ar    1  UNL1       -0.0033
     14 C         142.3444  142.5427  168.2097 C.ar    1  UNL1        0.0119
     15 C         141.0532  142.3880  168.9571 C.ar    1  UNL1        0.0682
     16 CL        140.3912  143.5879  169.5671 Cl      1  UNL1       -0.0814
     17 C         140.4239  141.0333  169.0946 C.ar    1  UNL1        0.0679
     18 CL        139.1326  140.8786  169.8421 Cl      1  UNL1       -0.0814
     19 C         141.0859  139.8335  168.4847 C.ar    1  UNL1        0.0080
     20 C         138.8322  137.4921  163.4302 C.3     1  UNL1        0.2358
     21 O         138.2175  138.0474  162.1797 O.3     1  UNL1       -0.4728
     22 C         138.4289  139.4871  161.8155 C.ar    1  UNL1        0.1388
     23 C         139.3186  139.8463  160.6625 C.ar    1  UNL1        0.0382
     24 C         139.5299  141.2860  160.2983 C.ar    1  UNL1        0.0190
     25 C         138.8515  142.3665  161.0872 C.ar    1  UNL1        0.0646
     26 C         137.9618  142.0073  162.2402 C.ar    1  UNL1        0.0190
     27 C         137.7505  140.5676  162.6043 C.ar    1  UNL1        0.0382
     28 N         139.0628  143.8062  160.7230 N.pl3   1  UNL1       -0.2187
     29 H         138.7001  144.1587  159.8783 H       1  UNL1        0.1734
     30 S         139.8268  144.7089  161.6459 S.O2    1  UNL1        0.0558
     31 C         140.5906  145.6116  162.5687 C.3     1  UNL1        0.1996
     32 O         141.1080  144.0480  161.2317 O.2     1  UNL1       -0.1544
     33 O         138.5455  145.3698  162.0600 O.2     1  UNL1       -0.1544
@<TRIPOS>BOND
     1     8     9    1
     2     9     7    1
     3     7     6    1
     4     6     5    1
     5     5    10    1
     6    10    11    1
     7    11    12    1
     8    12    13   ar
     9    13    14   ar
    10    14    15   ar
    11    15    16    1
    12    15    17   ar
    13    17    18    1
    14    17    19   ar
    15     5     4    1
    16     4     1    1
    17     1     2    1
    18     1    20    1
    19    20    21    1
    20    21    22    1
    21    22    23   ar
    22    23    24   ar
    23    24    25   ar
    24    25    28    1
    25    28    30    1
    26    30    31    1
    27    30    32    2
    28    30    33    2
    29    25    26   ar
    30    26    27   ar
    31    19    12   ar
    32    27    22   ar
    33     2     3    1
    34    28    29    1
@<TRIPOS>MOLECULE
*****
 33 34 0 0 0
SMALL
GASTEIGER

@<TRIPOS>ATOM
      1 C         143.3032  138.5734  166.8296 C.3     1  UNL1        0.1700
      2 O         144.4173  137.6177  167.1379 O.3     1  UNL1       -0.3793
      3 H         144.5452  137.5690  168.0982 H       1  UNL1        0.2106
      4 C         142.5865  139.2748  167.9452 C.3     1  UNL1        0.1056
      5 N         142.0584  140.6638  167.7410 N.3     1  UNL1       -0.2702
      6 C         142.9765  141.8424  167.8749 C.3     1  UNL1        0.0722
      7 C         143.3815  142.3268  169.2355 C.3     1  UNL1        0.0173
      8 C         141.1599  143.5167  169.8672 C.3     1  UNL1        0.0000
      9 C         142.3334  142.6661  170.2536 C.3     1  UNL1        0.0014
     10 C         140.6121  140.8742  167.4031 C.3     1  UNL1        0.0769
     11 C         139.7357  139.6973  167.0921 C.3     1  UNL1        0.0437
     12 C         139.2225  139.4919  165.6976 C.ar    1  UNL1       -0.0199
     13 C         139.4535  138.1852  164.9983 C.ar    1  UNL1       -0.0033
     14 C         138.9404  137.9799  163.6039 C.ar    1  UNL1        0.0119
     15 C         138.1962  139.0813  162.9088 C.ar    1  UNL1        0.0682
     16 CL        137.6830  138.8759  161.5143 Cl      1  UNL1       -0.0814
     17 C         137.9652  140.3880  163.6081 C.ar    1  UNL1        0.0679
     18 CL        137.2210  141.4894  162.9131 Cl      1  UNL1       -0.0814
     19 C         138.4784  140.5933  165.0026 C.ar    1  UNL1        0.0080
     20 C         142.9056  138.8278  165.4058 C.3     1  UNL1        0.2358
     21 O         143.4224  140.0391  164.6878 O.3     1  UNL1       -0.4728
     22 C         142.4890  140.8808  163.8691 C.ar    1  UNL1        0.1388
     23 C         141.9694  140.3669  162.5591 C.ar    1  UNL1        0.0382
     24 C         141.0360  141.2086  161.7404 C.ar    1  UNL1        0.0190
     25 C         140.6221  142.5642  162.2317 C.ar    1  UNL1        0.0646
     26 C         141.1417  143.0780  163.5416 C.ar    1  UNL1        0.0190
     27 C         142.0751  142.2363  164.3603 C.ar    1  UNL1        0.0382
     28 N         139.6887  143.4058  161.4129 N.pl3   1  UNL1       -0.2187
     29 H         139.0708  142.9788  160.7765 H       1  UNL1        0.1734
     30 S         139.6967  144.8982  161.5640 S.O2    1  UNL1        0.0558
     31 C         139.7047  146.3906  161.7150 C.3     1  UNL1        0.1996
     32 O         138.4096  144.8275  162.3310 O.2     1  UNL1       -0.1544
     33 O         140.9838  144.9689  160.7970 O.2     1  UNL1       -0.1544
@<TRIPOS>BOND
     1     8     9    1
     2     9     7    1
     3     7     6    1
     4     6     5    1
     5     5    10    1
     6    10    11    1
     7    11    12    1
     8    12    13   ar
     9    13    14   ar
    10    14    15   ar
    11    15    16    1
    12    15    17   ar
    13    17    18    1
    14    17    19   ar
    15     5     4    1
    16     4     1    1
    17     1     2    1
    18     1    20    1
    19    20    21    1
    20    21    22    1
    21    22    23   ar
    22    23    24   ar
    23    24    25   ar
    24    25    28    1
    25    28    30    1
    26    30    31    1
    27    30    32    2
    28    30    33    2
    29    25    26   ar
    30    26    27   ar
    31    19    12   ar
    32    27    22   ar
    33     2     3    1
    34    28    29    1
@<TRIPOS>MOLECULE
*****
 33 34 0 0 0
SMALL
GASTEIGER

@<TRIPOS>ATOM
      1 C         138.1381  143.4610  162.8429 C.3     1  UNL1        0.1700
      2 O         137.5687  142.9391  161.5570 O.3     1  UNL1       -0.3793
      3 H         137.5111  141.9717  161.5980 H       1  UNL1        0.2106
      4 C         138.5153  142.5075  163.9377 C.3     1  UNL1        0.1056
      5 N         139.6243  141.5204  163.7235 N.3     1  UNL1       -0.2702
      6 C         139.3393  140.2036  163.0642 C.3     1  UNL1        0.0722
      7 C         138.4988  139.1792  163.7672 C.3     1  UNL1        0.0173
      8 C         138.2577  139.1552  166.3540 C.3     1  UNL1        0.0000
      9 C         138.9222  138.6528  165.1066 C.3     1  UNL1        0.0014
     10 C         141.0182  141.8502  164.1687 C.3     1  UNL1        0.0769
     11 C         141.7444  140.9295  165.1041 C.3     1  UNL1        0.0437
     12 C         141.4838  141.0010  166.5796 C.ar    1  UNL1       -0.0199
     13 C         140.6702  142.1278  167.1437 C.ar    1  UNL1       -0.0033
     14 C         140.4096  142.1992  168.6192 C.ar    1  UNL1        0.0119
     15 C         140.9626  141.1439  169.5304 C.ar    1  UNL1        0.0682
     16 CL        140.7020  141.2153  171.0059 Cl      1  UNL1       -0.0814
     17 C         141.7762  140.0171  168.9663 C.ar    1  UNL1        0.0679
     18 CL        142.3292  138.9617  169.8775 Cl      1  UNL1       -0.0814
     19 C         142.0368  139.9456  167.4908 C.ar    1  UNL1        0.0080
     20 C         138.3303  144.9363  163.0339 C.3     1  UNL1        0.2358
     21 O         139.4654  145.6395  162.3505 O.3     1  UNL1       -0.4728
     22 C         140.8508  145.0684  162.4176 C.ar    1  UNL1        0.1388
     23 C         141.7405  145.3936  163.5807 C.ar    1  UNL1        0.0382
     24 C         143.1259  144.8225  163.6479 C.ar    1  UNL1        0.0190
     25 C         143.6216  143.9262  162.5519 C.ar    1  UNL1        0.0646
     26 C         142.7319  143.6010  161.3889 C.ar    1  UNL1        0.0190
     27 C         141.3465  144.1721  161.3218 C.ar    1  UNL1        0.0382
     28 N         145.0070  143.3551  162.6191 N.pl3   1  UNL1       -0.2187
     29 H         145.7661  143.8600  162.2476 H       1  UNL1        0.1734
     30 S         145.2357  142.0146  163.2523 S.O2    1  UNL1        0.0558
     31 C         145.4645  140.6742  163.8855 C.3     1  UNL1        0.1996
     32 O         145.2868  141.3814  161.8934 O.2     1  UNL1       -0.1544
     33 O         145.1847  142.6478  164.6111 O.2     1  UNL1       -0.1544
@<TRIPOS>BOND
     1     8     9    1
     2     9     7    1
     3     7     6    1
     4     6     5    1
     5     5    10    1
     6    10    11    1
     7    11    12    1
     8    12    13   ar
     9    13    14   ar
    10    14    15   ar
    11    15    16    1
    12    15    17   ar
    13    17    18    1
    14    17    19   ar
    15     5     4    1
    16     4     1    1
    17     1     2    1
    18     1    20    1
    19    20    21    1
    20    21    22    1
    21    22    23   ar
    22    23    24   ar
    23    24    25   ar
    24    25    28    1
    25    28    30    1
    26    30    31    1
    27    30    32    2
    28    30    33    2
    29    25    26   ar
    30    26    27   ar
    31    19    12   ar
    32    27    22   ar
    33     2     3    1
    34    28    29    1
@<TRIPOS>MOLECULE
*****
 33 34 0 0 0
SMALL
GASTEIGER

@<TRIPOS>ATOM
      1 C         138.4328  138.6243  161.9139 C.3     1  UNL1        0.1700
      2 O         137.8808  137.2938  162.3321 O.3     1  UNL1       -0.3793
      3 H         138.3046  136.5909  161.8151 H       1  UNL1        0.2106
      4 C         139.4798  138.6986  160.8424 C.3     1  UNL1        0.1056
      5 N         140.9244  138.8551  161.2149 N.3     1  UNL1       -0.2702
      6 C         141.6550  137.7246  161.8769 C.3     1  UNL1        0.0722
      7 C         141.3326  137.3506  163.2932 C.3     1  UNL1        0.0173
      8 C         142.9923  138.6345  164.8253 C.3     1  UNL1        0.0000
      9 C         141.5861  138.3273  164.4032 C.3     1  UNL1        0.0014
     10 C         141.6383  140.1422  160.9255 C.3     1  UNL1        0.0769
     11 C         143.1011  140.2736  161.2306 C.3     1  UNL1        0.0437
     12 C         143.5570  141.1633  162.3489 C.ar    1  UNL1       -0.0199
     13 C         144.9676  141.0737  162.8511 C.ar    1  UNL1       -0.0033
     14 C         145.4235  141.9634  163.9693 C.ar    1  UNL1        0.0119
     15 C         144.4688  142.9426  164.5855 C.ar    1  UNL1        0.0682
     16 CL        144.9248  143.8324  165.7038 Cl      1  UNL1       -0.0814
     17 C         143.0583  143.0322  164.0833 C.ar    1  UNL1        0.0679
     18 CL        142.1036  144.0115  164.6995 Cl      1  UNL1       -0.0814
     19 C         142.6024  142.1426  162.9651 C.ar    1  UNL1        0.0080
     20 C         137.9377  139.8805  162.5672 C.3     1  UNL1        0.2358
     21 O         138.8724  140.7163  163.3905 O.3     1  UNL1       -0.4728
     22 C         139.0142  140.4554  164.8608 C.ar    1  UNL1        0.1388
     23 C         138.2055  139.3727  165.5119 C.ar    1  UNL1        0.0382
     24 C         138.3473  139.1119  166.9822 C.ar    1  UNL1        0.0190
     25 C         139.2977  139.9338  167.8015 C.ar    1  UNL1        0.0646
     26 C         140.1063  141.0165  167.1505 C.ar    1  UNL1        0.0190
     27 C         139.9646  141.2773  165.6801 C.ar    1  UNL1        0.0382
     28 N         139.4394  139.6730  169.2718 N.pl3   1  UNL1       -0.2187
     29 H         139.0853  138.8407  169.6605 H       1  UNL1        0.1734
     30 S         140.1207  140.6804  170.1500 S.O2    1  UNL1        0.0558
     31 C         140.8019  141.6878  171.0281 C.3     1  UNL1        0.1996
     32 O         141.4237  139.9608  169.9647 O.2     1  UNL1       -0.1544
     33 O         138.8177  141.4000  170.3353 O.2     1  UNL1       -0.1544
@<TRIPOS>BOND
     1     8     9    1
     2     9     7    1
     3     7     6    1
     4     6     5    1
     5     5    10    1
     6    10    11    1
     7    11    12    1
     8    12    13   ar
     9    13    14   ar
    10    14    15   ar
    11    15    16    1
    12    15    17   ar
    13    17    18    1
    14    17    19   ar
    15     5     4    1
    16     4     1    1
    17     1     2    1
    18     1    20    1
    19    20    21    1
    20    21    22    1
    21    22    23   ar
    22    23    24   ar
    23    24    25   ar
    24    25    28    1
    25    28    30    1
    26    30    31    1
    27    30    32    2
    28    30    33    2
    29    25    26   ar
    30    26    27   ar
    31    19    12   ar
    32    27    22   ar
    33     2     3    1
    34    28    29    1
@<TRIPOS>MOLECULE
*****
 33 34 0 0 0
SMALL
GASTEIGER

@<TRIPOS>ATOM
      1 C         144.9073  140.1906  164.1641 C.3     1  UNL1        0.1700
      2 O         145.5577  138.8407  164.2331 O.3     1  UNL1       -0.3793
      3 H         144.8795  138.1619  164.3747 H       1  UNL1        0.2106
      4 C         143.4196  140.3145  164.3096 C.3     1  UNL1        0.1056
      5 N         142.8153  140.5501  165.6621 N.3     1  UNL1       -0.2702
      6 C         142.7828  141.9347  166.2381 C.3     1  UNL1        0.0722
      7 C         141.5826  142.8084  166.0231 C.3     1  UNL1        0.0173
      8 C         140.7372  142.6578  168.4752 C.3     1  UNL1        0.0000
      9 C         140.4516  142.7848  167.0081 C.3     1  UNL1        0.0014
     10 C         142.2435  139.4011  166.4386 C.3     1  UNL1        0.0769
     11 C         140.7573  139.2144  166.5168 C.3     1  UNL1        0.0437
     12 C         139.9531  139.0642  165.2595 C.ar    1  UNL1       -0.0199
     13 C         140.0598  137.8082  164.4465 C.ar    1  UNL1       -0.0033
     14 C         139.2555  137.6580  163.1893 C.ar    1  UNL1        0.0119
     15 C         138.3446  138.7639  162.7451 C.ar    1  UNL1        0.0682
     16 CL        137.5404  138.6137  161.4878 Cl      1  UNL1       -0.0814
     17 C         138.2379  140.0199  163.5581 C.ar    1  UNL1        0.0679
     18 CL        137.3270  141.1257  163.1138 Cl      1  UNL1       -0.0814
     19 C         139.0422  140.1700  164.8153 C.ar    1  UNL1        0.0080
     20 C         145.7446  141.4165  163.9495 C.3     1  UNL1        0.2358
     21 O         145.4863  142.3038  162.7680 O.3     1  UNL1       -0.4728
     22 C         144.2871  143.2047  162.7546 C.ar    1  UNL1        0.1388
     23 C         143.2046  142.9974  161.7370 C.ar    1  UNL1        0.0382
     24 C         142.0054  143.8983  161.7236 C.ar    1  UNL1        0.0190
     25 C         141.8887  145.0066  162.7277 C.ar    1  UNL1        0.0646
     26 C         142.9711  145.2139  163.7452 C.ar    1  UNL1        0.0190
     27 C         144.1703  144.3130  163.7586 C.ar    1  UNL1        0.0382
     28 N         140.6894  145.9075  162.7143 N.pl3   1  UNL1       -0.2187
     29 H         140.8079  146.8843  162.6812 H       1  UNL1        0.1734
     30 S         139.3096  145.3202  162.7513 S.O2    1  UNL1        0.0558
     31 C         137.9299  144.7328  162.7883 C.3     1  UNL1        0.1996
     32 O         139.1010  145.7202  161.3208 O.2     1  UNL1       -0.1544
     33 O         139.5183  144.9201  164.1817 O.2     1  UNL1       -0.1544
@<TRIPOS>BOND
     1     8     9    1
     2     9     7    1
     3     7     6    1
     4     6     5    1
     5     5    10    1
     6    10    11    1
     7    11    12    1
     8    12    13   ar
     9    13    14   ar
    10    14    15   ar
    11    15    16    1
    12    15    17   ar
    13    17    18    1
    14    17    19   ar
    15     5     4    1
    16     4     1    1
    17     1     2    1
    18     1    20    1
    19    20    21    1
    20    21    22    1
    21    22    23   ar
    22    23    24   ar
    23    24    25   ar
    24    25    28    1
    25    28    30    1
    26    30    31    1
    27    30    32    2
    28    30    33    2
    29    25    26   ar
    30    26    27   ar
    31    19    12   ar
    32    27    22   ar
    33     2     3    1
    34    28    29    1
@<TRIPOS>MOLECULE
*****
 33 34 0 0 0
SMALL
GASTEIGER

@<TRIPOS>ATOM
      1 C         140.6220  137.9779  162.3472 C.3     1  UNL1        0.1700
      2 O         141.6082  136.8633  162.1601 O.3     1  UNL1       -0.3793
      3 H         142.4447  137.2241  161.8271 H       1  UNL1        0.2106
      4 C         141.0153  139.3891  162.0249 C.3     1  UNL1        0.1056
      5 N         141.6996  140.2320  163.0600 N.3     1  UNL1       -0.2702
      6 C         141.2555  141.6463  163.2887 C.3     1  UNL1        0.0722
      7 C         142.1277  142.5904  164.0619 C.3     1  UNL1        0.0173
      8 C         140.4378  142.7981  166.0244 C.3     1  UNL1        0.0000
      9 C         141.8462  142.8550  165.5114 C.3     1  UNL1        0.0014
     10 C         142.8280  139.6604  163.8663 C.3     1  UNL1        0.0769
     11 C         142.5406  138.7063  164.9874 C.3     1  UNL1        0.0437
     12 C         141.6469  139.1241  166.1174 C.ar    1  UNL1       -0.0199
     13 C         142.2386  139.7174  167.3615 C.ar    1  UNL1       -0.0033
     14 C         141.3449  140.1352  168.4914 C.ar    1  UNL1        0.0119
     15 C         139.8596  139.9597  168.3772 C.ar    1  UNL1        0.0682
     16 CL        138.9659  140.3775  169.5072 Cl      1  UNL1       -0.0814
     17 C         139.2680  139.3664  167.1331 C.ar    1  UNL1        0.0679
     18 CL        137.7826  139.1909  167.0189 Cl      1  UNL1       -0.0814
     19 C         140.1616  138.9486  166.0032 C.ar    1  UNL1        0.0080
     20 C         139.2427  137.6814  162.8565 C.3     1  UNL1        0.2358
     21 O         138.0591  138.3975  162.2767 O.3     1  UNL1       -0.4728
     22 C         138.0075  139.8966  162.2932 C.ar    1  UNL1        0.1388
     23 C         137.7747  140.6248  163.5838 C.ar    1  UNL1        0.0382
     24 C         137.7231  142.1238  163.6003 C.ar    1  UNL1        0.0190
     25 C         137.9043  142.8946  162.3262 C.ar    1  UNL1        0.0646
     26 C         138.1371  142.1663  161.0358 C.ar    1  UNL1        0.0190
     27 C         138.1887  140.6673  161.0193 C.ar    1  UNL1        0.0382
     28 N         137.8527  144.3936  162.3428 N.pl3   1  UNL1       -0.2187
     29 H         136.9877  144.8573  162.2652 H       1  UNL1        0.1734
     30 S         139.1191  145.1862  162.4774 S.O2    1  UNL1        0.0558
     31 C         140.3855  145.9788  162.6121 C.3     1  UNL1        0.1996
     32 O         139.2461  145.2372  160.9837 O.2     1  UNL1       -0.1544
     33 O         138.9922  145.1352  163.9711 O.2     1  UNL1       -0.1544
@<TRIPOS>BOND
     1     8     9    1
     2     9     7    1
     3     7     6    1
     4     6     5    1
     5     5    10    1
     6    10    11    1
     7    11    12    1
     8    12    13   ar
     9    13    14   ar
    10    14    15   ar
    11    15    16    1
    12    15    17   ar
    13    17    18    1
    14    17    19   ar
    15     5     4    1
    16     4     1    1
    17     1     2    1
    18     1    20    1
    19    20    21    1
    20    21    22    1
    21    22    23   ar
    22    23    24   ar
    23    24    25   ar
    24    25    28    1
    25    28    30    1
    26    30    31    1
    27    30    32    2
    28    30    33    2
    29    25    26   ar
    30    26    27   ar
    31    19    12   ar
    32    27    22   ar
    33     2     3    1
    34    28    29    1
@<TRIPOS>MOLECULE
*****
 33 34 0 0 0
SMALL
GASTEIGER

@<TRIPOS>ATOM
      1 C         142.6034  138.6059  165.2994 C.3     1  UNL1        0.1700
      2 O         142.5949  139.0017  166.7462 O.3     1  UNL1       -0.3793
      3 H         141.9129  138.4963  167.2157 H       1  UNL1        0.2106
      4 C         141.6415  137.5690  164.7999 C.3     1  UNL1        0.1056
      5 N         140.3400  137.9884  164.1833 N.3     1  UNL1       -0.2702
      6 C         140.2811  138.3491  162.7285 C.3     1  UNL1        0.0722
      7 C         138.9582  138.6228  162.0767 C.3     1  UNL1        0.0173
      8 C         137.5543  139.9403  160.3321 C.3     1  UNL1        0.0000
      9 C         138.8117  139.7807  161.1343 C.3     1  UNL1        0.0014
     10 C         139.0974  138.0471  165.0215 C.3     1  UNL1        0.0769
     11 C         138.9756  139.0703  166.1115 C.3     1  UNL1        0.0437
     12 C         139.0682  140.5310  165.7828 C.ar    1  UNL1       -0.0199
     13 C         139.9770  141.4222  166.5763 C.ar    1  UNL1       -0.0033
     14 C         140.0696  142.8828  166.2476 C.ar    1  UNL1        0.0119
     15 C         139.2533  143.4522  165.1254 C.ar    1  UNL1        0.0682
     16 CL        139.3459  144.9128  164.7967 Cl      1  UNL1       -0.0814
     17 C         138.3444  142.5610  164.3318 C.ar    1  UNL1        0.0679
     18 CL        137.5281  143.1304  163.2096 Cl      1  UNL1       -0.0814
     19 C         138.2519  141.1004  164.6605 C.ar    1  UNL1        0.0080
     20 C         143.5737  139.2471  164.3521 C.3     1  UNL1        0.2358
     21 O         144.0469  140.6490  164.5981 O.3     1  UNL1       -0.4728
     22 C         143.3699  141.7999  163.9146 C.ar    1  UNL1        0.1388
     23 C         143.9397  143.1825  164.0322 C.ar    1  UNL1        0.0382
     24 C         143.2627  144.3333  163.3487 C.ar    1  UNL1        0.0190
     25 C         142.0159  144.1016  162.5475 C.ar    1  UNL1        0.0646
     26 C         141.4461  142.7190  162.4299 C.ar    1  UNL1        0.0190
     27 C         142.1231  141.5682  163.1134 C.ar    1  UNL1        0.0382
     28 N         141.3389  145.2524  161.8640 N.pl3   1  UNL1       -0.2187
     29 H         141.2555  146.1185  162.3246 H       1  UNL1        0.1734
     30 S         140.7890  145.0837  160.4786 S.O2    1  UNL1        0.0558
     31 C         140.2391  144.9149  159.0933 C.3     1  UNL1        0.1996
     32 O         142.1833  144.9560  159.9406 O.2     1  UNL1       -0.1544
     33 O         139.3946  145.2114  161.0165 O.2     1  UNL1       -0.1544
@<TRIPOS>BOND
     1     8     9    1
     2     9     7    1
     3     7     6    1
     4     6     5    1
     5     5    10    1
     6    10    11    1
     7    11    12    1
     8    12    13   ar
     9    13    14   ar
    10    14    15   ar
    11    15    16    1
    12    15    17   ar
    13    17    18    1
    14    17    19   ar
    15     5     4    1
    16     4     1    1
    17     1     2    1
    18     1    20    1
    19    20    21    1
    20    21    22    1
    21    22    23   ar
    22    23    24   ar
    23    24    25   ar
    24    25    28    1
    25    28    30    1
    26    30    31    1
    27    30    32    2
    28    30    33    2
    29    25    26   ar
    30    26    27   ar
    31    19    12   ar
    32    27    22   ar
    33     2     3    1
    34    28    29    1
