@<TRIPOS>MOLECULE
*****
 28 31 0 0 0
SMALL
GASTEIGER

@<TRIPOS>ATOM
      1 C         142.0357  138.1801  163.2281 C.ar    1  UNL1        0.1547
      2 C         142.0847  138.0891  161.7317 C.ar    1  UNL1        0.0400
      3 C         143.1773  138.7829  160.9735 C.ar    1  UNL1        0.0241
      4 C         144.2209  139.5677  161.7117 C.ar    1  UNL1        0.0033
      5 C         144.1719  139.6587  163.2081 C.ar    1  UNL1        0.0207
      6 C         143.0793  138.9649  163.9663 C.ar    1  UNL1        0.0994
      7 N         143.0303  139.0560  165.4628 N.ar    1  UNL1       -0.2839
      8 C         143.6984  138.1195  166.4254 C.ar    1  UNL1        0.1826
      9 N         143.3856  138.5842  167.8169 N.ar    1  UNL1       -0.2280
     10 C         142.5241  139.8079  167.7143 C.ar    1  UNL1        0.0786
     11 C         141.9781  140.6008  168.8645 C.3     1  UNL1        0.0538
     12 C         142.3045  140.0995  166.2594 C.ar    1  UNL1        0.0963
     13 C         143.2263  138.6919  159.4770 C.ar    1  UNL1        0.1233
     14 C         142.4264  137.7523  158.6242 C.ar    1  UNL1        0.1179
     15 N         142.7896  138.0042  157.1908 N.ar    1  UNL1       -0.2257
     16 N         143.8139  139.0996  157.1577 N.ar    1  UNL1       -0.0635
     17 N         144.0838  139.5245  158.5707 N.ar    1  UNL1       -0.1287
     18 C         142.2271  137.2868  155.9996 C.3     1  UNL1        0.1556
     19 C         142.5734  135.8474  155.7585 C.ar    1  UNL1        0.0031
     20 C         143.3763  135.0890  156.7738 C.ar    1  UNL1        0.0044
     21 C         143.7226  133.6496  156.5327 C.ar    1  UNL1        0.0348
     22 BR        144.5253  132.8912  157.5478 Br      1  UNL1       -0.0490
     23 C         143.2661  132.9685  155.2766 C.ar    1  UNL1        0.0134
     24 C         142.4634  133.7269  154.2615 C.ar    1  UNL1        0.0348
     25 BR        142.0070  133.0458  153.0053 Br      1  UNL1       -0.0490
     26 C         142.1171  135.1663  154.5025 C.ar    1  UNL1        0.0044
     27 C         139.5140  137.6510  163.5614 C.3     1  UNL1        0.2525
     28 O         140.9431  137.4863  163.9863 O.3     1  UNL1       -0.4700
@<TRIPOS>BOND
     1    27    28    1
     2    28     1    1
     3     1     2   ar
     4     2     3   ar
     5     3    13    1
     6    13    14   ar
     7    14    15   ar
     8    15    18    1
     9    18    19    1
    10    19    20   ar
    11    20    21   ar
    12    21    22    1
    13    21    23   ar
    14    23    24   ar
    15    24    25    1
    16    24    26   ar
    17    15    16   ar
    18    16    17   ar
    19     3     4   ar
    20     4     5   ar
    21     5     6   ar
    22     6     7    1
    23     7     8   ar
    24     8     9   ar
    25     9    10   ar
    26    10    11    1
    27    10    12   ar
    28     6     1   ar
    29    12     7   ar
    30    17    13   ar
    31    26    19   ar
@<TRIPOS>MOLECULE
*****
 28 31 0 0 0
SMALL
GASTEIGER

@<TRIPOS>ATOM
      1 C         140.2371  139.5792  161.2111 C.ar    1  UNL1        0.1547
      2 C         140.8598  139.2971  159.8759 C.ar    1  UNL1        0.0400
      3 C         142.0441  138.3817  159.7791 C.ar    1  UNL1        0.0241
      4 C         142.6057  137.7483  161.0174 C.ar    1  UNL1        0.0033
      5 C         141.9829  138.0304  162.3525 C.ar    1  UNL1        0.0207
      6 C         140.7987  138.9458  162.4493 C.ar    1  UNL1        0.0994
      7 N         140.1759  139.2279  163.7846 N.ar    1  UNL1       -0.2839
      8 C         140.4991  140.3861  164.6812 C.ar    1  UNL1        0.1826
      9 N         139.6436  140.2753  165.9083 N.ar    1  UNL1       -0.2280
     10 C         138.7916  139.0484  165.7701 C.ar    1  UNL1        0.0786
     11 C         137.7871  138.5555  166.7690 C.3     1  UNL1        0.0538
     12 C         139.1206  138.4011  164.4575 C.ar    1  UNL1        0.0963
     13 C         142.6669  138.0996  158.4439 C.ar    1  UNL1        0.1233
     14 C         142.4930  136.8473  157.6368 C.ar    1  UNL1        0.1179
     15 N         143.2914  136.9941  156.3755 N.ar    1  UNL1       -0.2257
     16 N         143.9589  138.3372  156.4031 N.ar    1  UNL1       -0.0635
     17 N         143.5728  139.0204  157.6814 N.ar    1  UNL1       -0.1287
     18 C         143.4029  135.9765  155.2791 C.3     1  UNL1        0.1556
     19 C         143.2265  134.5192  155.5876 C.ar    1  UNL1        0.0031
     20 C         142.0953  133.7531  154.9682 C.ar    1  UNL1        0.0044
     21 C         141.9189  132.2958  155.2767 C.ar    1  UNL1        0.0348
     22 BR        140.7878  131.5297  154.6574 Br      1  UNL1       -0.0490
     23 C         142.8736  131.6046  156.2045 C.ar    1  UNL1        0.0134
     24 C         144.0048  132.3707  156.8238 C.ar    1  UNL1        0.0348
     25 BR        144.9595  131.6796  157.7516 Br      1  UNL1       -0.0490
     26 C         144.1812  133.8280  156.5153 C.ar    1  UNL1        0.0044
     27 C         137.6636  139.9357  161.2208 C.3     1  UNL1        0.2525
     28 O         139.0528  140.4947  161.3079 O.3     1  UNL1       -0.4700
@<TRIPOS>BOND
     1    27    28    1
     2    28     1    1
     3     1     2   ar
     4     2     3   ar
     5     3    13    1
     6    13    14   ar
     7    14    15   ar
     8    15    18    1
     9    18    19    1
    10    19    20   ar
    11    20    21   ar
    12    21    22    1
    13    21    23   ar
    14    23    24   ar
    15    24    25    1
    16    24    26   ar
    17    15    16   ar
    18    16    17   ar
    19     3     4   ar
    20     4     5   ar
    21     5     6   ar
    22     6     7    1
    23     7     8   ar
    24     8     9   ar
    25     9    10   ar
    26    10    11    1
    27    10    12   ar
    28     6     1   ar
    29    12     7   ar
    30    17    13   ar
    31    26    19   ar
@<TRIPOS>MOLECULE
*****
 28 31 0 0 0
SMALL
GASTEIGER

@<TRIPOS>ATOM
      1 C         139.5012  139.3933  161.2535 C.ar    1  UNL1        0.1547
      2 C         139.8493  138.4975  160.1018 C.ar    1  UNL1        0.0400
      3 C         139.6383  138.9699  158.6939 C.ar    1  UNL1        0.0241
      4 C         139.0792  140.3379  158.4376 C.ar    1  UNL1        0.0033
      5 C         138.7311  141.2337  159.5893 C.ar    1  UNL1        0.0207
      6 C         138.9421  140.7613  160.9972 C.ar    1  UNL1        0.0994
      7 N         138.5939  141.6571  162.1490 N.ar    1  UNL1       -0.2839
      8 C         137.4160  141.4992  163.0640 C.ar    1  UNL1        0.1826
      9 N         137.4567  142.6126  164.0684 N.ar    1  UNL1       -0.2280
     10 C         138.6599  143.4587  163.7740 C.ar    1  UNL1        0.0786
     11 C         139.0854  144.6807  164.5327 C.3     1  UNL1        0.0538
     12 C         139.3627  142.8682  162.5877 C.ar    1  UNL1        0.0963
     13 C         139.9865  138.0741  157.5421 C.ar    1  UNL1        0.1233
     14 C         141.3417  137.5022  157.2482 C.ar    1  UNL1        0.1179
     15 N         141.2333  136.6676  156.0066 N.ar    1  UNL1       -0.2257
     16 N         139.8110  136.7236  155.5331 N.ar    1  UNL1       -0.0635
     17 N         139.0405  137.5929  156.4821 N.ar    1  UNL1       -0.1287
     18 C         142.3509  135.9100  155.3532 C.3     1  UNL1        0.1556
     19 C         142.5711  134.4638  155.6849 C.ar    1  UNL1        0.0031
     20 C         141.6547  133.4174  155.1231 C.ar    1  UNL1        0.0044
     21 C         141.8750  131.9713  155.4549 C.ar    1  UNL1        0.0348
     22 BR        140.9587  130.9250  154.8931 Br      1  UNL1       -0.0490
     23 C         143.0116  131.5714  156.3484 C.ar    1  UNL1        0.0134
     24 C         143.9279  132.6177  156.9102 C.ar    1  UNL1        0.0348
     25 BR        145.0644  132.2179  157.8037 Br      1  UNL1       -0.0490
     26 C         143.7076  134.0639  156.5784 C.ar    1  UNL1        0.0044
     27 C         138.9365  137.7479  163.1833 C.3     1  UNL1        0.2525
     28 O         139.7122  138.9209  162.6615 O.3     1  UNL1       -0.4700
@<TRIPOS>BOND
     1    27    28    1
     2    28     1    1
     3     1     2   ar
     4     2     3   ar
     5     3    13    1
     6    13    14   ar
     7    14    15   ar
     8    15    18    1
     9    18    19    1
    10    19    20   ar
    11    20    21   ar
    12    21    22    1
    13    21    23   ar
    14    23    24   ar
    15    24    25    1
    16    24    26   ar
    17    15    16   ar
    18    16    17   ar
    19     3     4   ar
    20     4     5   ar
    21     5     6   ar
    22     6     7    1
    23     7     8   ar
    24     8     9   ar
    25     9    10   ar
    26    10    11    1
    27    10    12   ar
    28     6     1   ar
    29    12     7   ar
    30    17    13   ar
    31    26    19   ar
@<TRIPOS>MOLECULE
*****
 28 31 0 0 0
SMALL
GASTEIGER

@<TRIPOS>ATOM
      1 C         141.5534  139.5511  163.8371 C.ar    1  UNL1        0.1547
      2 C         141.6147  139.2646  162.3660 C.ar    1  UNL1        0.0400
      3 C         142.9329  139.2931  161.6507 C.ar    1  UNL1        0.0241
      4 C         144.1897  139.6081  162.4064 C.ar    1  UNL1        0.0033
      5 C         144.1283  139.8946  163.8775 C.ar    1  UNL1        0.0207
      6 C         142.8102  139.8661  164.5928 C.ar    1  UNL1        0.0994
      7 N         142.7488  140.1526  166.0640 N.ar    1  UNL1       -0.2839
      8 C         142.8010  141.5097  166.7009 C.ar    1  UNL1        0.1826
      9 N         142.7090  141.3281  168.1870 N.ar    1  UNL1       -0.2280
     10 C         142.5999  139.8587  168.4686 C.ar    1  UNL1        0.0786
     11 C         142.4862  139.2269  169.8242 C.3     1  UNL1        0.0538
     12 C         142.6245  139.1323  167.1565 C.ar    1  UNL1        0.0963
     13 C         142.9942  139.0066  160.1795 C.ar    1  UNL1        0.1233
     14 C         142.0010  138.2006  159.3961 C.ar    1  UNL1        0.1179
     15 N         142.4525  138.1717  157.9659 N.ar    1  UNL1       -0.2257
     16 N         143.7248  138.9598  157.8655 N.ar    1  UNL1       -0.0635
     17 N         144.0596  139.4758  159.2336 N.ar    1  UNL1       -0.1287
     18 C         141.7542  137.4767  156.8348 C.3     1  UNL1        0.1556
     19 C         142.2236  136.1265  156.3800 C.ar    1  UNL1        0.0031
     20 C         141.8023  135.5979  155.0408 C.ar    1  UNL1        0.0044
     21 C         142.2716  134.2478  154.5861 C.ar    1  UNL1        0.0348
     22 BR        141.8504  133.7192  153.2470 Br      1  UNL1       -0.0490
     23 C         143.1622  133.4263  155.4703 C.ar    1  UNL1        0.0134
     24 C         143.5835  133.9549  156.8094 C.ar    1  UNL1        0.0348
     25 BR        144.4741  133.1333  157.6937 Br      1  UNL1       -0.0490
     26 C         143.1141  135.3050  157.2642 C.ar    1  UNL1        0.0044
     27 C         139.5661  138.2112  164.8397 C.3     1  UNL1        0.2525
     28 O         140.2352  139.5225  164.5524 O.3     1  UNL1       -0.4700
@<TRIPOS>BOND
     1    27    28    1
     2    28     1    1
     3     1     2   ar
     4     2     3   ar
     5     3    13    1
     6    13    14   ar
     7    14    15   ar
     8    15    18    1
     9    18    19    1
    10    19    20   ar
    11    20    21   ar
    12    21    22    1
    13    21    23   ar
    14    23    24   ar
    15    24    25    1
    16    24    26   ar
    17    15    16   ar
    18    16    17   ar
    19     3     4   ar
    20     4     5   ar
    21     5     6   ar
    22     6     7    1
    23     7     8   ar
    24     8     9   ar
    25     9    10   ar
    26    10    11    1
    27    10    12   ar
    28     6     1   ar
    29    12     7   ar
    30    17    13   ar
    31    26    19   ar
@<TRIPOS>MOLECULE
*****
 28 31 0 0 0
SMALL
GASTEIGER

@<TRIPOS>ATOM
      1 C         143.3854  141.8814  159.3026 C.ar    1  UNL1        0.1547
      2 C         142.3565  142.3588  160.2840 C.ar    1  UNL1        0.0400
      3 C         141.6238  143.6442  160.0369 C.ar    1  UNL1        0.0241
      4 C         141.9201  144.4521  158.8083 C.ar    1  UNL1        0.0033
      5 C         142.9491  143.9747  157.8269 C.ar    1  UNL1        0.0207
      6 C         143.6818  142.6894  158.0740 C.ar    1  UNL1        0.0994
      7 N         144.7108  142.2119  157.0925 N.ar    1  UNL1       -0.2839
      8 C         144.4486  141.3675  155.8809 C.ar    1  UNL1        0.1826
      9 N         145.7584  141.1289  155.1899 N.ar    1  UNL1       -0.2280
     10 C         146.8302  141.8258  155.9746 C.ar    1  UNL1        0.0786
     11 C         148.2926  141.8493  155.6418 C.3     1  UNL1        0.0538
     12 C         146.1827  142.4952  157.1504 C.ar    1  UNL1        0.0963
     13 C         140.5948  144.1216  161.0184 C.ar    1  UNL1        0.1233
     14 C         140.4387  143.6475  162.4329 C.ar    1  UNL1        0.1179
     15 N         139.2887  144.3898  163.0463 N.ar    1  UNL1       -0.2257
     16 N         138.7339  145.3227  162.0109 N.ar    1  UNL1       -0.0635
     17 N         139.5412  145.1569  160.7576 N.ar    1  UNL1       -0.1287
     18 C         138.7823  144.2277  164.4490 C.3     1  UNL1        0.1556
     19 C         139.1985  143.0393  165.2640 C.ar    1  UNL1        0.0031
     20 C         138.5989  141.6924  164.9866 C.ar    1  UNL1        0.0044
     21 C         139.0151  140.5040  165.8016 C.ar    1  UNL1        0.0348
     22 BR        138.4156  139.1573  165.5242 Br      1  UNL1       -0.0490
     23 C         140.0309  140.6622  166.8940 C.ar    1  UNL1        0.0134
     24 C         140.6304  142.0089  167.1714 C.ar    1  UNL1        0.0348
     25 BR        141.6461  142.1672  168.2638 Br      1  UNL1       -0.0490
     26 C         140.2141  143.1974  166.3563 C.ar    1  UNL1        0.0044
     27 C         143.6355  139.6492  160.6083 C.3     1  UNL1        0.2525
     28 O         144.1181  140.5961  159.5497 O.3     1  UNL1       -0.4700
@<TRIPOS>BOND
     1    27    28    1
     2    28     1    1
     3     1     2   ar
     4     2     3   ar
     5     3    13    1
     6    13    14   ar
     7    14    15   ar
     8    15    18    1
     9    18    19    1
    10    19    20   ar
    11    20    21   ar
    12    21    22    1
    13    21    23   ar
    14    23    24   ar
    15    24    25    1
    16    24    26   ar
    17    15    16   ar
    18    16    17   ar
    19     3     4   ar
    20     4     5   ar
    21     5     6   ar
    22     6     7    1
    23     7     8   ar
    24     8     9   ar
    25     9    10   ar
    26    10    11    1
    27    10    12   ar
    28     6     1   ar
    29    12     7   ar
    30    17    13   ar
    31    26    19   ar
@<TRIPOS>MOLECULE
*****
 28 31 0 0 0
SMALL
GASTEIGER

@<TRIPOS>ATOM
      1 C         138.9003  142.9878  162.9739 C.ar    1  UNL1        0.1547
      2 C         139.2371  143.7639  161.7353 C.ar    1  UNL1        0.0400
      3 C         140.4208  143.3702  160.9023 C.ar    1  UNL1        0.0241
      4 C         141.2676  142.2005  161.3079 C.ar    1  UNL1        0.0033
      5 C         140.9307  141.4244  162.5465 C.ar    1  UNL1        0.0207
      6 C         139.7471  141.8181  163.3795 C.ar    1  UNL1        0.0994
      7 N         139.4102  141.0420  164.6182 N.ar    1  UNL1       -0.2839
      8 C         138.4370  139.9041  164.7083 C.ar    1  UNL1        0.1826
      9 N         138.4128  139.4264  166.1300 N.ar    1  UNL1       -0.2280
     10 C         139.3711  140.2690  166.9186 C.ar    1  UNL1        0.0786
     11 C         139.6619  140.1364  168.3841 C.3     1  UNL1        0.0538
     12 C         139.9875  141.2675  165.9842 C.ar    1  UNL1        0.0963
     13 C         140.7576  144.1463  159.6636 C.ar    1  UNL1        0.1233
     14 C         140.0151  144.0943  158.3614 C.ar    1  UNL1        0.1179
     15 N         140.6947  145.0266  157.4027 N.ar    1  UNL1       -0.2257
     16 N         141.8573  145.6548  158.1125 N.ar    1  UNL1       -0.0635
     17 N         141.8962  145.1107  159.5098 N.ar    1  UNL1       -0.1287
     18 C         140.2838  145.2852  155.9834 C.3     1  UNL1        0.1556
     19 C         139.9640  146.6813  155.5378 C.ar    1  UNL1        0.0031
     20 C         139.2196  147.6085  156.4524 C.ar    1  UNL1        0.0044
     21 C         138.8998  149.0046  156.0068 C.ar    1  UNL1        0.0348
     22 BR        138.1555  149.9318  156.9213 Br      1  UNL1       -0.0490
     23 C         139.3241  149.4735  154.6466 C.ar    1  UNL1        0.0134
     24 C         140.0684  148.5463  153.7321 C.ar    1  UNL1        0.0348
     25 BR        140.4927  149.0152  152.3719 Br      1  UNL1       -0.0490
     26 C         140.3883  147.1503  154.1777 C.ar    1  UNL1        0.0044
     27 C         137.8736  144.3948  164.9018 C.3     1  UNL1        0.2525
     28 O         137.7166  143.3815  163.8070 O.3     1  UNL1       -0.4700
@<TRIPOS>BOND
     1    27    28    1
     2    28     1    1
     3     1     2   ar
     4     2     3   ar
     5     3    13    1
     6    13    14   ar
     7    14    15   ar
     8    15    18    1
     9    18    19    1
    10    19    20   ar
    11    20    21   ar
    12    21    22    1
    13    21    23   ar
    14    23    24   ar
    15    24    25    1
    16    24    26   ar
    17    15    16   ar
    18    16    17   ar
    19     3     4   ar
    20     4     5   ar
    21     5     6   ar
    22     6     7    1
    23     7     8   ar
    24     8     9   ar
    25     9    10   ar
    26    10    11    1
    27    10    12   ar
    28     6     1   ar
    29    12     7   ar
    30    17    13   ar
    31    26    19   ar
@<TRIPOS>MOLECULE
*****
 28 31 0 0 0
SMALL
GASTEIGER

@<TRIPOS>ATOM
      1 C         140.5696  140.8891  164.7975 C.ar    1  UNL1        0.1547
      2 C         140.4482  141.6519  163.5117 C.ar    1  UNL1        0.0400
      3 C         140.3633  143.1493  163.5331 C.ar    1  UNL1        0.0241
      4 C         140.3997  143.8840  164.8403 C.ar    1  UNL1        0.0033
      5 C         140.5211  143.1212  166.1262 C.ar    1  UNL1        0.0207
      6 C         140.6060  141.6237  166.1047 C.ar    1  UNL1        0.0994
      7 N         140.7274  140.8610  167.3907 N.ar    1  UNL1       -0.2839
      8 C         139.6066  140.5393  168.3342 C.ar    1  UNL1        0.1826
      9 N         140.1775  139.7655  169.4854 N.ar    1  UNL1       -0.2280
     10 C         141.6512  139.6089  169.2534 C.ar    1  UNL1        0.0786
     11 C         142.6156  138.8997  170.1573 C.3     1  UNL1        0.0538
     12 C         141.9910  140.2859  167.9587 C.ar    1  UNL1        0.0963
     13 C         140.2419  143.9121  162.2472 C.ar    1  UNL1        0.1233
     14 C         141.0643  143.6943  161.0118 C.ar    1  UNL1        0.1179
     15 N         140.6074  144.6742  159.9721 N.ar    1  UNL1       -0.2257
     16 N         139.5026  145.4976  160.5649 N.ar    1  UNL1       -0.0635
     17 N         139.2767  145.0266  161.9709 N.ar    1  UNL1       -0.1287
     18 C         141.1586  144.8073  158.5834 C.3     1  UNL1        0.1556
     19 C         140.2368  145.0912  157.4346 C.ar    1  UNL1        0.0031
     20 C         140.2905  146.4202  156.7408 C.ar    1  UNL1        0.0044
     21 C         139.3687  146.7041  155.5920 C.ar    1  UNL1        0.0348
     22 BR        139.4223  148.0329  154.8982 Br      1  UNL1       -0.0490
     23 C         138.3933  145.6593  155.1370 C.ar    1  UNL1        0.0134
     24 C         138.3397  144.3305  155.8308 C.ar    1  UNL1        0.0348
     25 BR        137.3644  143.2856  155.3759 Br      1  UNL1       -0.0490
     26 C         139.2615  144.0465  156.9796 C.ar    1  UNL1        0.0044
     27 C         139.4052  138.5680  164.8786 C.3     1  UNL1        0.2525
     28 O         140.6546  139.3917  164.7761 O.3     1  UNL1       -0.4700
@<TRIPOS>BOND
     1    27    28    1
     2    28     1    1
     3     1     2   ar
     4     2     3   ar
     5     3    13    1
     6    13    14   ar
     7    14    15   ar
     8    15    18    1
     9    18    19    1
    10    19    20   ar
    11    20    21   ar
    12    21    22    1
    13    21    23   ar
    14    23    24   ar
    15    24    25    1
    16    24    26   ar
    17    15    16   ar
    18    16    17   ar
    19     3     4   ar
    20     4     5   ar
    21     5     6   ar
    22     6     7    1
    23     7     8   ar
    24     8     9   ar
    25     9    10   ar
    26    10    11    1
    27    10    12   ar
    28     6     1   ar
    29    12     7   ar
    30    17    13   ar
    31    26    19   ar
@<TRIPOS>MOLECULE
*****
 28 31 0 0 0
SMALL
GASTEIGER

@<TRIPOS>ATOM
      1 C         142.4882  140.0649  163.5300 C.ar    1  UNL1        0.1547
      2 C         142.3798  139.8553  162.0488 C.ar    1  UNL1        0.0400
      3 C         141.8178  138.5723  161.5120 C.ar    1  UNL1        0.0241
      4 C         141.3642  137.4990  162.4565 C.ar    1  UNL1        0.0033
      5 C         141.4726  137.7086  163.9377 C.ar    1  UNL1        0.0207
      6 C         142.0346  138.9915  164.4745 C.ar    1  UNL1        0.0994
      7 N         142.1430  139.2011  165.9559 N.ar    1  UNL1       -0.2839
      8 C         143.2827  138.7632  166.8273 C.ar    1  UNL1        0.1826
      9 N         142.9748  139.1769  168.2358 N.ar    1  UNL1       -0.2280
     10 C         141.6447  139.8704  168.2350 C.ar    1  UNL1        0.0786
     11 C         140.9506  140.4477  169.4330 C.3     1  UNL1        0.0538
     12 C         141.1307  139.8854  166.8260 C.ar    1  UNL1        0.0963
     13 C         141.7094  138.3627  160.0306 C.ar    1  UNL1        0.1233
     14 C         142.8229  137.9484  159.1149 C.ar    1  UNL1        0.1179
     15 N         142.2701  137.8603  157.7233 N.ar    1  UNL1       -0.2257
     16 N         140.8149  138.2202  157.7788 N.ar    1  UNL1       -0.0635
     17 N         140.4684  138.5307  159.2048 N.ar    1  UNL1       -0.1287
     18 C         143.0377  137.4792  156.4922 C.3     1  UNL1        0.1556
     19 C         143.0493  136.0532  156.0270 C.ar    1  UNL1        0.0031
     20 C         142.4004  135.6834  154.7260 C.ar    1  UNL1        0.0044
     21 C         142.4121  134.2574  154.2609 C.ar    1  UNL1        0.0348
     22 BR        141.7632  133.8876  152.9600 Br      1  UNL1       -0.0490
     23 C         143.0726  133.2013  155.0965 C.ar    1  UNL1        0.0134
     24 C         143.7214  133.5711  156.3973 C.ar    1  UNL1        0.0348
     25 BR        144.3819  132.5149  157.2330 Br      1  UNL1       -0.0490
     26 C         143.7098  134.9971  156.8625 C.ar    1  UNL1        0.0044
     27 C         144.5057  141.4404  164.4175 C.3     1  UNL1        0.2525
     28 O         143.0502  141.3479  164.0668 O.3     1  UNL1       -0.4700
@<TRIPOS>BOND
     1    27    28    1
     2    28     1    1
     3     1     2   ar
     4     2     3   ar
     5     3    13    1
     6    13    14   ar
     7    14    15   ar
     8    15    18    1
     9    18    19    1
    10    19    20   ar
    11    20    21   ar
    12    21    22    1
    13    21    23   ar
    14    23    24   ar
    15    24    25    1
    16    24    26   ar
    17    15    16   ar
    18    16    17   ar
    19     3     4   ar
    20     4     5   ar
    21     5     6   ar
    22     6     7    1
    23     7     8   ar
    24     8     9   ar
    25     9    10   ar
    26    10    11    1
    27    10    12   ar
    28     6     1   ar
    29    12     7   ar
    30    17    13   ar
    31    26    19   ar
@<TRIPOS>MOLECULE
*****
 28 31 0 0 0
SMALL
GASTEIGER

@<TRIPOS>ATOM
      1 C         140.0949  144.1496  160.1922 C.ar    1  UNL1        0.1547
      2 C         139.7102  143.1492  161.2415 C.ar    1  UNL1        0.0400
      3 C         139.3278  141.7544  160.8437 C.ar    1  UNL1        0.0241
      4 C         139.3302  141.3600  159.3965 C.ar    1  UNL1        0.0033
      5 C         139.7149  142.3604  158.3472 C.ar    1  UNL1        0.0207
      6 C         140.0972  143.7552  158.7450 C.ar    1  UNL1        0.0994
      7 N         140.4820  144.7556  157.6956 N.ar    1  UNL1       -0.2839
      8 C         141.8734  145.2302  157.3979 C.ar    1  UNL1        0.1826
      9 N         141.7942  146.2250  156.2780 N.ar    1  UNL1       -0.2280
     10 C         140.3537  146.3652  155.8836 C.ar    1  UNL1        0.0786
     11 C         139.8183  147.2570  154.8028 C.3     1  UNL1        0.0538
     12 C         139.5428  145.4571  156.7597 C.ar    1  UNL1        0.0963
     13 C         138.9431  140.7540  161.8931 C.ar    1  UNL1        0.1233
     14 C         138.9578  140.9815  163.3757 C.ar    1  UNL1        0.1179
     15 N         138.4999  139.7185  164.0430 N.ar    1  UNL1       -0.2257
     16 N         138.2022  138.7104  162.9728 N.ar    1  UNL1       -0.0635
     17 N         138.4761  139.3504  161.6441 N.ar    1  UNL1       -0.1287
     18 C         138.3636  139.5017  165.5210 C.3     1  UNL1        0.1556
     19 C         139.5773  139.5502  166.4012 C.ar    1  UNL1        0.0031
     20 C         140.9149  139.1436  165.8573 C.ar    1  UNL1        0.0044
     21 C         142.1285  139.1921  166.7375 C.ar    1  UNL1        0.0348
     22 BR        143.4661  138.7855  166.1937 Br      1  UNL1       -0.0490
     23 C         142.0046  139.6470  168.1615 C.ar    1  UNL1        0.0134
     24 C         140.6671  140.0536  168.7053 C.ar    1  UNL1        0.0348
     25 BR        140.5432  140.5085  170.1292 Br      1  UNL1       -0.0490
     26 C         139.4534  140.0051  167.8251 C.ar    1  UNL1        0.0044
     27 C         139.6887  146.2672  161.6416 C.3     1  UNL1        0.2525
     28 O         140.4773  145.5444  160.5901 O.3     1  UNL1       -0.4700
@<TRIPOS>BOND
     1    27    28    1
     2    28     1    1
     3     1     2   ar
     4     2     3   ar
     5     3    13    1
     6    13    14   ar
     7    14    15   ar
     8    15    18    1
     9    18    19    1
    10    19    20   ar
    11    20    21   ar
    12    21    22    1
    13    21    23   ar
    14    23    24   ar
    15    24    25    1
    16    24    26   ar
    17    15    16   ar
    18    16    17   ar
    19     3     4   ar
    20     4     5   ar
    21     5     6   ar
    22     6     7    1
    23     7     8   ar
    24     8     9   ar
    25     9    10   ar
    26    10    11    1
    27    10    12   ar
    28     6     1   ar
    29    12     7   ar
    30    17    13   ar
    31    26    19   ar
