@<TRIPOS>MOLECULE
*****
 35 39 0 0 0
SMALL
GASTEIGER

@<TRIPOS>ATOM
      1 N         139.0744  139.7113  163.2600 N.3     1  UNL1       -0.2690
      2 C         137.9022  140.6468  163.2864 C.3     1  UNL1        0.0725
      3 C         137.7208  141.6531  162.1890 C.3     1  UNL1        0.0211
      4 C         138.7116  141.7240  161.0651 C.3     1  UNL1        0.0466
      5 C         139.8839  140.7886  161.0387 C.3     1  UNL1        0.0211
      6 C         140.0653  139.7822  162.1361 C.3     1  UNL1        0.0725
      7 C         139.2559  138.7050  164.3574 C.3     1  UNL1        0.0991
      8 C         140.8906  139.9960  168.3463 C.ar    1  UNL1       -0.0173
      9 C         139.4109  140.0135  168.1010 C.ar    1  UNL1       -0.0042
     10 C         138.8660  139.5832  166.7714 C.ar    1  UNL1       -0.0032
     11 C         139.8007  139.1353  165.6871 C.ar    1  UNL1       -0.0062
     12 C         141.2804  139.1178  165.9324 C.ar    1  UNL1       -0.0032
     13 C         141.8253  139.5482  167.2620 C.ar    1  UNL1       -0.0042
     14 C         142.8909  140.7603  169.8175 C.3     1  UNL1        0.0106
     15 C         141.4354  140.4263  169.6760 C.3     1  UNL1        0.0588
     16 C         140.5248  140.5227  170.8640 C.2     1  UNL1        0.0540
     17 O         139.5540  139.4173  171.1565 O.co2   1  UNL1       -0.5488
     18 O         140.5849  141.7245  171.7595 O.co2   1  UNL1       -0.5488
     19 C         138.5302  142.7303  159.9676 C.3     1  UNL1        0.2087
     20 O         139.5180  143.8471  159.8033 O.3     1  UNL1       -0.4453
     21 C         139.9579  144.6412  160.9973 C.2     1  UNL1        0.3458
     22 O         139.4975  146.0589  161.1662 O.2     1  UNL1       -0.2447
     23 C         140.8581  144.0178  162.0225 C.ar    1  UNL1        0.1283
     24 C         142.2507  143.5145  161.7837 C.ar    1  UNL1        0.2121
     25 N         142.7769  142.9739  163.0801 N.ar    1  UNL1       -0.2989
     26 C         141.7095  143.1431  164.1203 C.ar    1  UNL1        0.0626
     27 C         141.6641  142.7930  165.5781 C.ar    1  UNL1        0.0173
     28 C         140.4329  143.0882  166.3823 C.ar    1  UNL1        0.0015
     29 C         139.2469  143.7333  165.7287 C.ar    1  UNL1        0.0001
     30 C         139.2922  144.0834  164.2708 C.ar    1  UNL1        0.0018
     31 C         140.5235  143.7883  163.4666 C.ar    1  UNL1        0.0266
     32 C         144.1601  142.3974  163.1461 C.3     1  UNL1        0.1127
     33 C         145.0171  142.3615  161.9155 C.3     1  UNL1        0.0719
     34 C         144.4910  142.9021  160.6190 C.3     1  UNL1        0.2091
     35 O         143.1078  143.4786  160.5531 O.3     1  UNL1       -0.4611
@<TRIPOS>UNITY_ATOM_ATTR
17 1
charge -1
@<TRIPOS>BOND
     1    14    15    1
     2    15    16    1
     3    16    17   ar
     4    16    18   ar
     5    15     8    1
     6     8     9   ar
     7     9    10   ar
     8    10    11   ar
     9    11     7    1
    10     7     1    1
    11     1     2    1
    12     2     3    1
    13     3     4    1
    14     4    19    1
    15    19    20    1
    16    20    21    1
    17    21    22    2
    18    21    23    1
    19    23    24   ar
    20    24    25   ar
    21    25    26   ar
    22    26    27   ar
    23    27    28   ar
    24    28    29   ar
    25    29    30   ar
    26    30    31   ar
    27    25    32    1
    28    32    33    1
    29    33    34    1
    30    34    35    1
    31     4     5    1
    32     5     6    1
    33    11    12   ar
    34    12    13   ar
    35    13     8   ar
    36     6     1    1
    37    31    23   ar
    38    35    24    1
    39    31    26   ar
@<TRIPOS>MOLECULE
*****
 35 39 0 0 0
SMALL
GASTEIGER

@<TRIPOS>ATOM
      1 N         142.7373  140.8137  163.6001 N.3     1  UNL1       -0.2690
      2 C         142.5427  139.5041  162.8953 C.3     1  UNL1        0.0725
      3 C         141.9342  139.4731  161.5246 C.3     1  UNL1        0.0211
      4 C         141.5203  140.7519  160.8587 C.3     1  UNL1        0.0466
      5 C         141.7149  142.0615  161.5635 C.3     1  UNL1        0.0211
      6 C         142.3234  142.0925  162.9342 C.3     1  UNL1        0.0725
      7 C         143.3457  140.8447  164.9708 C.3     1  UNL1        0.0991
      8 C         140.7084  141.2476  168.5947 C.ar    1  UNL1       -0.0173
      9 C         140.7792  142.3602  167.5912 C.ar    1  UNL1       -0.0042
     10 C         141.6583  142.2260  166.3832 C.ar    1  UNL1       -0.0032
     11 C         142.4666  140.9790  166.1788 C.ar    1  UNL1       -0.0062
     12 C         142.3958  139.8664  167.1823 C.ar    1  UNL1       -0.0032
     13 C         141.5168  140.0007  168.3902 C.ar    1  UNL1       -0.0042
     14 C         138.7043  140.4145  170.0229 C.3     1  UNL1        0.0106
     15 C         139.8293  141.3820  169.8026 C.3     1  UNL1        0.0588
     16 C         140.0752  142.4838  170.7903 C.2     1  UNL1        0.0540
     17 O         139.7917  143.9073  170.4119 O.co2   1  UNL1       -0.5488
     18 O         140.6044  142.1621  172.1565 O.co2   1  UNL1       -0.5488
     19 C         140.9119  140.7209  159.4880 C.3     1  UNL1        0.2087
     20 O         139.5010  141.1871  159.2830 O.3     1  UNL1       -0.4453
     21 C         138.3917  140.6065  160.1090 C.2     1  UNL1        0.3458
     22 O         137.2803  139.8484  159.4455 O.2     1  UNL1       -0.2447
     23 C         138.3938  140.7838  161.5985 C.ar    1  UNL1        0.1283
     24 C         138.2290  142.0818  162.3321 C.ar    1  UNL1        0.2121
     25 N         138.2944  141.7944  163.8029 N.ar    1  UNL1       -0.2989
     26 C         138.4995  140.3189  163.9782 C.ar    1  UNL1        0.0626
     27 C         138.6383  139.4633  165.2025 C.ar    1  UNL1        0.0173
     28 C         138.8386  137.9832  165.0643 C.ar    1  UNL1        0.0015
     29 C         138.9000  137.3586  163.7019 C.ar    1  UNL1        0.0001
     30 C         138.7612  138.2142  162.4777 C.ar    1  UNL1        0.0018
     31 C         138.5610  139.6943  162.6159 C.ar    1  UNL1        0.0266
     32 C         138.1587  142.9135  164.7924 C.3     1  UNL1        0.1127
     33 C         137.9576  144.3199  164.3112 C.3     1  UNL1        0.0719
     34 C         137.8922  144.6073  162.8404 C.3     1  UNL1        0.2091
     35 O         138.0279  143.4882  161.8509 O.3     1  UNL1       -0.4611
@<TRIPOS>UNITY_ATOM_ATTR
17 1
charge -1
@<TRIPOS>BOND
     1    14    15    1
     2    15    16    1
     3    16    17   ar
     4    16    18   ar
     5    15     8    1
     6     8     9   ar
     7     9    10   ar
     8    10    11   ar
     9    11     7    1
    10     7     1    1
    11     1     2    1
    12     2     3    1
    13     3     4    1
    14     4    19    1
    15    19    20    1
    16    20    21    1
    17    21    22    2
    18    21    23    1
    19    23    24   ar
    20    24    25   ar
    21    25    26   ar
    22    26    27   ar
    23    27    28   ar
    24    28    29   ar
    25    29    30   ar
    26    30    31   ar
    27    25    32    1
    28    32    33    1
    29    33    34    1
    30    34    35    1
    31     4     5    1
    32     5     6    1
    33    11    12   ar
    34    12    13   ar
    35    13     8   ar
    36     6     1    1
    37    31    23   ar
    38    35    24    1
    39    31    26   ar
@<TRIPOS>MOLECULE
*****
 35 39 0 0 0
SMALL
GASTEIGER

@<TRIPOS>ATOM
      1 N         142.9109  140.9171  163.8702 N.3     1  UNL1       -0.2690
      2 C         142.6530  139.4529  164.0687 C.3     1  UNL1        0.0725
      3 C         142.0143  138.6488  162.9753 C.3     1  UNL1        0.0211
      4 C         141.6334  139.3090  161.6834 C.3     1  UNL1        0.0466
      5 C         141.8913  140.7732  161.4849 C.3     1  UNL1        0.0211
      6 C         142.5300  141.5773  162.5782 C.3     1  UNL1        0.0725
      7 C         143.5497  141.7212  164.9635 C.3     1  UNL1        0.0991
      8 C         141.1773  142.8248  168.6247 C.ar    1  UNL1       -0.0173
      9 C         140.5009  142.7465  167.2882 C.ar    1  UNL1       -0.0042
     10 C         141.2916  142.3786  166.0678 C.ar    1  UNL1       -0.0032
     11 C         142.7588  142.0891  166.1839 C.ar    1  UNL1       -0.0062
     12 C         143.4352  142.1674  167.5204 C.ar    1  UNL1       -0.0032
     13 C         142.6445  142.5352  168.7408 C.ar    1  UNL1       -0.0042
     14 C         140.0580  144.6301  170.1208 C.3     1  UNL1        0.0106
     15 C         140.3865  143.1927  169.8451 C.3     1  UNL1        0.0588
     16 C         139.9241  142.1232  170.7897 C.2     1  UNL1        0.0540
     17 O         138.8656  141.1505  170.3613 O.co2   1  UNL1       -0.5488
     18 O         140.5202  142.0262  172.1627 O.co2   1  UNL1       -0.5488
     19 C         140.9947  138.5049  160.5900 C.3     1  UNL1        0.2087
     20 O         139.5338  138.1715  160.6597 O.3     1  UNL1       -0.4453
     21 C         138.5259  139.2597  160.8824 C.2     1  UNL1        0.3458
     22 O         137.6581  139.7215  159.7493 O.2     1  UNL1       -0.2447
     23 C         138.3857  139.8862  162.2380 C.ar    1  UNL1        0.1283
     24 C         138.4051  139.1608  163.5508 C.ar    1  UNL1        0.2121
     25 N         138.2328  140.1745  164.6430 N.ar    1  UNL1       -0.2989
     26 C         138.1069  141.5263  164.0052 C.ar    1  UNL1        0.0626
     27 C         137.9184  142.8964  164.5859 C.ar    1  UNL1        0.0173
     28 C         137.8244  144.0883  163.6802 C.ar    1  UNL1        0.0015
     29 C         137.9189  143.9102  162.1938 C.ar    1  UNL1        0.0001
     30 C         138.1073  142.5401  161.6131 C.ar    1  UNL1        0.0018
     31 C         138.2014  141.3481  162.5188 C.ar    1  UNL1        0.0266
     32 C         138.2129  139.7356  166.0772 C.3     1  UNL1        0.1127
     33 C         138.3652  138.2830  166.4192 C.3     1  UNL1        0.0719
     34 C         138.5375  137.2694  165.3270 C.3     1  UNL1        0.2091
     35 O         138.5575  137.7083  163.8928 O.3     1  UNL1       -0.4611
@<TRIPOS>UNITY_ATOM_ATTR
17 1
charge -1
@<TRIPOS>BOND
     1    14    15    1
     2    15    16    1
     3    16    17   ar
     4    16    18   ar
     5    15     8    1
     6     8     9   ar
     7     9    10   ar
     8    10    11   ar
     9    11     7    1
    10     7     1    1
    11     1     2    1
    12     2     3    1
    13     3     4    1
    14     4    19    1
    15    19    20    1
    16    20    21    1
    17    21    22    2
    18    21    23    1
    19    23    24   ar
    20    24    25   ar
    21    25    26   ar
    22    26    27   ar
    23    27    28   ar
    24    28    29   ar
    25    29    30   ar
    26    30    31   ar
    27    25    32    1
    28    32    33    1
    29    33    34    1
    30    34    35    1
    31     4     5    1
    32     5     6    1
    33    11    12   ar
    34    12    13   ar
    35    13     8   ar
    36     6     1    1
    37    31    23   ar
    38    35    24    1
    39    31    26   ar
@<TRIPOS>MOLECULE
*****
 35 39 0 0 0
SMALL
GASTEIGER

@<TRIPOS>ATOM
      1 N         139.9643  143.2073  162.8366 N.3     1  UNL1       -0.2690
      2 C         138.5115  142.8343  162.8497 C.3     1  UNL1        0.0725
      3 C         137.9513  141.9618  161.7657 C.3     1  UNL1        0.0211
      4 C         138.8440  141.4622  160.6686 C.3     1  UNL1        0.0466
      5 C         140.2968  141.8352  160.6556 C.3     1  UNL1        0.0211
      6 C         140.8569  142.7077  161.7395 C.3     1  UNL1        0.0725
      7 C         140.5244  144.0798  163.9205 C.3     1  UNL1        0.0991
      8 C         142.1985  142.2241  167.6627 C.ar    1  UNL1       -0.0173
      9 C         143.0802  142.4248  166.4660 C.ar    1  UNL1       -0.0042
     10 C         142.5223  143.0434  165.2186 C.ar    1  UNL1       -0.0032
     11 C         141.0825  143.4612  165.1679 C.ar    1  UNL1       -0.0062
     12 C         140.2008  143.2605  166.3647 C.ar    1  UNL1       -0.0032
     13 C         140.7587  142.6419  167.6120 C.ar    1  UNL1       -0.0042
     14 C         142.7278  140.1162  169.0863 C.3     1  UNL1        0.0106
     15 C         142.7566  141.6055  168.9101 C.3     1  UNL1        0.0588
     16 C         143.3434  142.4763  169.9812 C.2     1  UNL1        0.0540
     17 O         144.8052  142.8115  169.9581 O.co2   1  UNL1       -0.5488
     18 O         142.4684  143.0118  171.0755 O.co2   1  UNL1       -0.5488
     19 C         138.2838  140.5897  159.5847 C.3     1  UNL1        0.2087
     20 O         138.3503  139.0968  159.7141 O.3     1  UNL1       -0.4453
     21 C         138.3370  138.4604  161.0723 C.2     1  UNL1        0.3458
     22 O         137.1121  137.7380  161.5500 O.2     1  UNL1       -0.2447
     23 C         139.5483  138.5462  161.9528 C.ar    1  UNL1        0.1283
     24 C         140.9661  138.3022  161.5282 C.ar    1  UNL1        0.2121
     25 N         141.8484  138.4964  162.7256 N.ar    1  UNL1       -0.2989
     26 C         140.9760  138.8604  163.8902 C.ar    1  UNL1        0.0626
     27 C         141.2924  139.1678  165.3238 C.ar    1  UNL1        0.0173
     28 C         140.1872  139.5060  166.2799 C.ar    1  UNL1        0.0015
     29 C         138.7656  139.5368  165.8023 C.ar    1  UNL1        0.0001
     30 C         138.4492  139.2294  164.3687 C.ar    1  UNL1        0.0018
     31 C         139.5544  138.8912  163.4126 C.ar    1  UNL1        0.0266
     32 C         143.3324  138.3166  162.6007 C.3     1  UNL1        0.1127
     33 C         143.9339  137.9427  161.2784 C.3     1  UNL1        0.0719
     34 C         143.0515  137.7485  160.0810 C.3     1  UNL1        0.2091
     35 O         141.5676  137.9283  160.2059 O.3     1  UNL1       -0.4611
@<TRIPOS>UNITY_ATOM_ATTR
17 1
charge -1
@<TRIPOS>BOND
     1    14    15    1
     2    15    16    1
     3    16    17   ar
     4    16    18   ar
     5    15     8    1
     6     8     9   ar
     7     9    10   ar
     8    10    11   ar
     9    11     7    1
    10     7     1    1
    11     1     2    1
    12     2     3    1
    13     3     4    1
    14     4    19    1
    15    19    20    1
    16    20    21    1
    17    21    22    2
    18    21    23    1
    19    23    24   ar
    20    24    25   ar
    21    25    26   ar
    22    26    27   ar
    23    27    28   ar
    24    28    29   ar
    25    29    30   ar
    26    30    31   ar
    27    25    32    1
    28    32    33    1
    29    33    34    1
    30    34    35    1
    31     4     5    1
    32     5     6    1
    33    11    12   ar
    34    12    13   ar
    35    13     8   ar
    36     6     1    1
    37    31    23   ar
    38    35    24    1
    39    31    26   ar
@<TRIPOS>MOLECULE
*****
 35 39 0 0 0
SMALL
GASTEIGER

@<TRIPOS>ATOM
      1 N         143.4245  141.6300  163.6607 N.3     1  UNL1       -0.2690
      2 C         143.5623  143.1199  163.5549 C.3     1  UNL1        0.0725
      3 C         143.2433  143.8129  162.2634 C.3     1  UNL1        0.0211
      4 C         142.7864  143.0159  161.0776 C.3     1  UNL1        0.0466
      5 C         142.6485  141.5261  161.1834 C.3     1  UNL1        0.0211
      6 C         142.9675  140.8331  162.4749 C.3     1  UNL1        0.0725
      7 C         143.7435  140.9371  164.9522 C.3     1  UNL1        0.0991
      8 C         140.9419  141.3044  168.4546 C.ar    1  UNL1       -0.0173
      9 C         140.7969  140.1607  167.4949 C.ar    1  UNL1       -0.0042
     10 C         141.7307  140.0382  166.3275 C.ar    1  UNL1       -0.0032
     11 C         142.8096  141.0595  166.1196 C.ar    1  UNL1       -0.0062
     12 C         142.9546  142.2032  167.0793 C.ar    1  UNL1       -0.0032
     13 C         142.0207  142.3257  168.2467 C.ar    1  UNL1       -0.0042
     14 C         138.8795  140.4521  169.7851 C.3     1  UNL1        0.0106
     15 C         140.0080  141.4268  169.6220 C.3     1  UNL1        0.0588
     16 C         140.2025  142.5239  170.6262 C.2     1  UNL1        0.0540
     17 O         139.9329  143.9486  170.2423 O.co2   1  UNL1       -0.5488
     18 O         140.6668  142.1963  172.0144 O.co2   1  UNL1       -0.5488
     19 C         142.4673  143.7089  159.7861 C.3     1  UNL1        0.2087
     20 O         141.0409  143.9954  159.4211 O.3     1  UNL1       -0.4453
     21 C         140.0605  144.3949  160.4837 C.2     1  UNL1        0.3458
     22 O         139.6262  145.8257  160.6036 O.2     1  UNL1       -0.2447
     23 C         139.5144  143.3638  161.4263 C.ar    1  UNL1        0.1283
     24 C         138.8727  142.0651  161.0369 C.ar    1  UNL1        0.2121
     25 N         138.4758  141.3491  162.2938 N.ar    1  UNL1       -0.2989
     26 C         138.8722  142.2052  163.4600 C.ar    1  UNL1        0.0626
     27 C         138.7316  142.0118  164.9407 C.ar    1  UNL1        0.0173
     28 C         139.2329  143.0636  165.8854 C.ar    1  UNL1        0.0015
     29 C         139.8748  144.3088  165.3492 C.ar    1  UNL1        0.0001
     30 C         140.0154  144.5022  163.8684 C.ar    1  UNL1        0.0018
     31 C         139.5141  143.4504  162.9238 C.ar    1  UNL1        0.0266
     32 C         137.8047  140.0100  162.2140 C.3     1  UNL1        0.1127
     33 C         137.5304  139.3869  160.8774 C.3     1  UNL1        0.0719
     34 C         137.9273  140.1030  159.6205 C.3     1  UNL1        0.2091
     35 O         138.5984  141.4421  159.7003 O.3     1  UNL1       -0.4611
@<TRIPOS>UNITY_ATOM_ATTR
17 1
charge -1
@<TRIPOS>BOND
     1    14    15    1
     2    15    16    1
     3    16    17   ar
     4    16    18   ar
     5    15     8    1
     6     8     9   ar
     7     9    10   ar
     8    10    11   ar
     9    11     7    1
    10     7     1    1
    11     1     2    1
    12     2     3    1
    13     3     4    1
    14     4    19    1
    15    19    20    1
    16    20    21    1
    17    21    22    2
    18    21    23    1
    19    23    24   ar
    20    24    25   ar
    21    25    26   ar
    22    26    27   ar
    23    27    28   ar
    24    28    29   ar
    25    29    30   ar
    26    30    31   ar
    27    25    32    1
    28    32    33    1
    29    33    34    1
    30    34    35    1
    31     4     5    1
    32     5     6    1
    33    11    12   ar
    34    12    13   ar
    35    13     8   ar
    36     6     1    1
    37    31    23   ar
    38    35    24    1
    39    31    26   ar
@<TRIPOS>MOLECULE
*****
 35 39 0 0 0
SMALL
GASTEIGER

@<TRIPOS>ATOM
      1 N         139.5556  139.3874  163.7905 N.3     1  UNL1       -0.2690
      2 C         138.1855  139.9679  163.6016 C.3     1  UNL1        0.0725
      3 C         137.8134  140.6026  162.2944 C.3     1  UNL1        0.0211
      4 C         138.8115  140.6567  161.1760 C.3     1  UNL1        0.0466
      5 C         140.1816  140.0762  161.3648 C.3     1  UNL1        0.0211
      6 C         140.5537  139.4416  162.6720 C.3     1  UNL1        0.0725
      7 C         139.9277  138.7528  165.0977 C.3     1  UNL1        0.0991
      8 C         141.6130  141.2729  168.4232 C.ar    1  UNL1       -0.0173
      9 C         140.1779  141.4304  168.0162 C.ar    1  UNL1       -0.0042
     10 C         139.6161  140.5904  166.9078 C.ar    1  UNL1       -0.0032
     11 C         140.4894  139.5928  166.2062 C.ar    1  UNL1       -0.0062
     12 C         141.9245  139.4353  166.6132 C.ar    1  UNL1       -0.0032
     13 C         142.4863  140.2753  167.7216 C.ar    1  UNL1       -0.0042
     14 C         143.6601  142.2472  169.6922 C.3     1  UNL1        0.0106
     15 C         142.1747  142.1129  169.5317 C.3     1  UNL1        0.0588
     16 C         141.2511  142.8186  170.4798 C.2     1  UNL1        0.0540
     17 O         140.8175  144.2263  170.1962 O.co2   1  UNL1       -0.5488
     18 O         140.7611  142.1168  171.7115 O.co2   1  UNL1       -0.5488
     19 C         138.4394  141.2913  159.8688 C.3     1  UNL1        0.2087
     20 O         138.3411  142.7842  159.7609 O.3     1  UNL1       -0.4453
     21 C         139.5647  143.6318  159.9457 C.2     1  UNL1        0.3458
     22 O         140.0340  144.5237  158.8347 O.2     1  UNL1       -0.2447
     23 C         140.3191  143.5875  161.2414 C.ar    1  UNL1        0.1283
     24 C         141.7894  143.3345  161.3974 C.ar    1  UNL1        0.2121
     25 N         142.1146  143.3791  162.8610 N.ar    1  UNL1       -0.2989
     26 C         140.8454  143.6596  163.6096 C.ar    1  UNL1        0.0626
     27 C         140.5568  143.8143  165.0734 C.ar    1  UNL1        0.0173
     28 C         139.1585  144.0979  165.5362 C.ar    1  UNL1        0.0015
     29 C         138.0488  144.2267  164.5352 C.ar    1  UNL1        0.0001
     30 C         138.3374  144.0719  163.0714 C.ar    1  UNL1        0.0018
     31 C         139.7357  143.7884  162.6086 C.ar    1  UNL1        0.0266
     32 C         143.5245  143.1585  163.3230 C.3     1  UNL1        0.1127
     33 C         144.6092  142.8933  162.3214 C.3     1  UNL1        0.0719
     34 C         144.2840  142.8488  160.8578 C.3     1  UNL1        0.2091
     35 O         142.8741  143.0694  160.3958 O.3     1  UNL1       -0.4611
@<TRIPOS>UNITY_ATOM_ATTR
17 1
charge -1
@<TRIPOS>BOND
     1    14    15    1
     2    15    16    1
     3    16    17   ar
     4    16    18   ar
     5    15     8    1
     6     8     9   ar
     7     9    10   ar
     8    10    11   ar
     9    11     7    1
    10     7     1    1
    11     1     2    1
    12     2     3    1
    13     3     4    1
    14     4    19    1
    15    19    20    1
    16    20    21    1
    17    21    22    2
    18    21    23    1
    19    23    24   ar
    20    24    25   ar
    21    25    26   ar
    22    26    27   ar
    23    27    28   ar
    24    28    29   ar
    25    29    30   ar
    26    30    31   ar
    27    25    32    1
    28    32    33    1
    29    33    34    1
    30    34    35    1
    31     4     5    1
    32     5     6    1
    33    11    12   ar
    34    12    13   ar
    35    13     8   ar
    36     6     1    1
    37    31    23   ar
    38    35    24    1
    39    31    26   ar
@<TRIPOS>MOLECULE
*****
 35 39 0 0 0
SMALL
GASTEIGER

@<TRIPOS>ATOM
      1 N         141.9459  138.5268  163.3542 N.3     1  UNL1       -0.2690
      2 C         143.3462  138.3061  162.8640 C.3     1  UNL1        0.0725
      3 C         143.7660  138.8413  161.5271 C.3     1  UNL1        0.0211
      4 C         142.7853  139.5972  160.6803 C.3     1  UNL1        0.0466
      5 C         141.3850  139.8179  161.1705 C.3     1  UNL1        0.0211
      6 C         140.9653  139.2827  162.5074 C.3     1  UNL1        0.0725
      7 C         141.5261  137.9916  164.6911 C.3     1  UNL1        0.0991
      8 C         140.7655  140.8188  168.1085 C.ar    1  UNL1       -0.0173
      9 C         142.0666  140.0772  168.0240 C.ar    1  UNL1       -0.0042
     10 C         142.3202  139.1348  166.8850 C.ar    1  UNL1       -0.0032
     11 C         141.2726  138.9340  165.8302 C.ar    1  UNL1       -0.0062
     12 C         139.9715  139.6756  165.9147 C.ar    1  UNL1       -0.0032
     13 C         139.7179  140.6180  167.0538 C.ar    1  UNL1       -0.0042
     14 C         140.5149  143.2424  169.0106 C.3     1  UNL1        0.0106
     15 C         140.5120  141.7612  169.2476 C.3     1  UNL1        0.0588
     16 C         140.2555  141.2224  170.6238 C.2     1  UNL1        0.0540
     17 O         140.6826  142.0078  171.8284 O.co2   1  UNL1       -0.5488
     18 O         139.5720  139.8984  170.7956 O.co2   1  UNL1       -0.5488
     19 C         143.2051  140.1324  159.3434 C.3     1  UNL1        0.2087
     20 O         143.2355  141.6129  159.1041 O.3     1  UNL1       -0.4453
     21 C         143.8984  142.5199  160.0979 C.2     1  UNL1        0.3458
     22 O         145.3522  142.8590  159.9506 O.2     1  UNL1       -0.2447
     23 C         143.1078  143.0878  161.2391 C.ar    1  UNL1        0.1283
     24 C         142.0002  144.0935  161.1301 C.ar    1  UNL1        0.2121
     25 N         141.4938  144.3769  162.5133 N.ar    1  UNL1       -0.2989
     26 C         142.2885  143.5465  163.4772 C.ar    1  UNL1        0.0626
     27 C         142.2326  143.4129  164.9701 C.ar    1  UNL1        0.0173
     28 C         143.1743  142.4826  165.6756 C.ar    1  UNL1        0.0015
     29 C         144.1718  141.6859  164.8880 C.ar    1  UNL1        0.0001
     30 C         144.2276  141.8195  163.3951 C.ar    1  UNL1        0.0018
     31 C         143.2860  142.7498  162.6896 C.ar    1  UNL1        0.0266
     32 C         140.3745  145.3546  162.7165 C.3     1  UNL1        0.1127
     33 C         139.7616  146.0488  161.5365 C.3     1  UNL1        0.0719
     34 C         140.2679  145.7653  160.1533 C.3     1  UNL1        0.2091
     35 O         141.3872  144.7877  159.9501 O.3     1  UNL1       -0.4611
@<TRIPOS>UNITY_ATOM_ATTR
17 1
charge -1
@<TRIPOS>BOND
     1    14    15    1
     2    15    16    1
     3    16    17   ar
     4    16    18   ar
     5    15     8    1
     6     8     9   ar
     7     9    10   ar
     8    10    11   ar
     9    11     7    1
    10     7     1    1
    11     1     2    1
    12     2     3    1
    13     3     4    1
    14     4    19    1
    15    19    20    1
    16    20    21    1
    17    21    22    2
    18    21    23    1
    19    23    24   ar
    20    24    25   ar
    21    25    26   ar
    22    26    27   ar
    23    27    28   ar
    24    28    29   ar
    25    29    30   ar
    26    30    31   ar
    27    25    32    1
    28    32    33    1
    29    33    34    1
    30    34    35    1
    31     4     5    1
    32     5     6    1
    33    11    12   ar
    34    12    13   ar
    35    13     8   ar
    36     6     1    1
    37    31    23   ar
    38    35    24    1
    39    31    26   ar
@<TRIPOS>MOLECULE
*****
 35 39 0 0 0
SMALL
GASTEIGER

@<TRIPOS>ATOM
      1 N         138.8872  141.5538  162.9444 N.3     1  UNL1       -0.2690
      2 C         138.8719  140.2806  162.1515 C.3     1  UNL1        0.0725
      3 C         139.6231  140.1947  160.8560 C.3     1  UNL1        0.0211
      4 C         140.3898  141.3820  160.3534 C.3     1  UNL1        0.0466
      5 C         140.4052  142.6551  161.1464 C.3     1  UNL1        0.0211
      6 C         139.6539  142.7411  162.4418 C.3     1  UNL1        0.0725
      7 C         138.1360  141.6397  164.2399 C.3     1  UNL1        0.0991
      8 C         140.1411  140.4444  168.0871 C.ar    1  UNL1       -0.0173
      9 C         140.4464  141.7741  167.4639 C.ar    1  UNL1       -0.0042
     10 C         139.7781  142.1726  166.1815 C.ar    1  UNL1       -0.0032
     11 C         138.8044  141.2413  165.5223 C.ar    1  UNL1       -0.0062
     12 C         138.4990  139.9115  166.1455 C.ar    1  UNL1       -0.0032
     13 C         139.1673  139.5130  167.4279 C.ar    1  UNL1       -0.0042
     14 C         142.1930  139.4669  169.3458 C.3     1  UNL1        0.0106
     15 C         140.8094  140.0459  169.3695 C.3     1  UNL1        0.0588
     16 C         140.0942  140.2265  170.6756 C.2     1  UNL1        0.0540
     17 O         138.8388  139.4550  170.9562 O.co2   1  UNL1       -0.5488
     18 O         140.6344  141.1786  171.7011 O.co2   1  UNL1       -0.5488
     19 C         141.1410  141.2960  159.0580 C.3     1  UNL1        0.2087
     20 O         142.6369  141.1857  159.0644 O.3     1  UNL1       -0.4453
     21 C         143.3191  140.2943  160.0592 C.2     1  UNL1        0.3458
     22 O         144.1366  139.1292  159.5855 O.2     1  UNL1       -0.2447
     23 C         143.1838  140.5677  161.5279 C.ar    1  UNL1        0.1283
     24 C         143.5288  141.8525  162.2210 C.ar    1  UNL1        0.2121
     25 N         143.2379  141.6832  163.6827 N.ar    1  UNL1       -0.2989
     26 C         142.7131  140.2938  163.8930 C.ar    1  UNL1        0.0626
     27 C         142.2614  139.5674  165.1252 C.ar    1  UNL1        0.0173
     28 C         141.7761  138.1516  165.0255 C.ar    1  UNL1        0.0015
     29 C         141.7426  137.4622  163.6938 C.ar    1  UNL1        0.0001
     30 C         142.1944  138.1886  162.4616 C.ar    1  UNL1        0.0018
     31 C         142.6796  139.6044  162.5613 C.ar    1  UNL1        0.0266
     32 C         143.4886  142.8160  164.6334 C.3     1  UNL1        0.1127
     33 C         144.0301  144.1182  164.1223 C.3     1  UNL1        0.0719
     34 C         144.3210  144.2875  162.6606 C.3     1  UNL1        0.2091
     35 O         144.0704  143.1546  161.7099 O.3     1  UNL1       -0.4611
@<TRIPOS>UNITY_ATOM_ATTR
17 1
charge -1
@<TRIPOS>BOND
     1    14    15    1
     2    15    16    1
     3    16    17   ar
     4    16    18   ar
     5    15     8    1
     6     8     9   ar
     7     9    10   ar
     8    10    11   ar
     9    11     7    1
    10     7     1    1
    11     1     2    1
    12     2     3    1
    13     3     4    1
    14     4    19    1
    15    19    20    1
    16    20    21    1
    17    21    22    2
    18    21    23    1
    19    23    24   ar
    20    24    25   ar
    21    25    26   ar
    22    26    27   ar
    23    27    28   ar
    24    28    29   ar
    25    29    30   ar
    26    30    31   ar
    27    25    32    1
    28    32    33    1
    29    33    34    1
    30    34    35    1
    31     4     5    1
    32     5     6    1
    33    11    12   ar
    34    12    13   ar
    35    13     8   ar
    36     6     1    1
    37    31    23   ar
    38    35    24    1
    39    31    26   ar
@<TRIPOS>MOLECULE
*****
 35 39 0 0 0
SMALL
GASTEIGER

@<TRIPOS>ATOM
      1 N         142.1343  142.9286  163.5574 N.3     1  UNL1       -0.2690
      2 C         141.1427  142.4854  162.5228 C.3     1  UNL1        0.0725
      3 C         141.6215  141.9060  161.2247 C.3     1  UNL1        0.0211
      4 C         143.0919  141.7697  160.9612 C.3     1  UNL1        0.0466
      5 C         144.0834  142.2128  161.9958 C.3     1  UNL1        0.0211
      6 C         143.6046  142.7922  163.2939 C.3     1  UNL1        0.0725
      7 C         141.6555  143.5080  164.8555 C.3     1  UNL1        0.0991
      8 C         141.5088  140.9397  168.5477 C.ar    1  UNL1       -0.0173
      9 C         142.8085  141.5441  168.1057 C.ar    1  UNL1       -0.0042
     10 C         142.8575  142.4002  166.8750 C.ar    1  UNL1       -0.0032
     11 C         141.6066  142.6519  166.0862 C.ar    1  UNL1       -0.0062
     12 C         140.3069  142.0474  166.5282 C.ar    1  UNL1       -0.0032
     13 C         140.2580  141.1913  167.7589 C.ar    1  UNL1       -0.0042
     14 C         142.4173  138.9394  169.9347 C.3     1  UNL1        0.0106
     15 C         141.4599  140.0836  169.7785 C.3     1  UNL1        0.0588
     16 C         140.4538  140.3717  170.8530 C.2     1  UNL1        0.0540
     17 O         140.6615  141.5292  171.7841 O.co2   1  UNL1       -0.5488
     18 O         139.2399  139.5024  170.9964 O.co2   1  UNL1       -0.5488
     19 C         143.5707  141.1903  159.6631 C.3     1  UNL1        0.2087
     20 O         144.1324  139.8000  159.6242 O.3     1  UNL1       -0.4453
     21 C         143.2599  138.6287  159.9658 C.2     1  UNL1        0.3458
     22 O         143.1442  137.4764  159.0123 O.2     1  UNL1       -0.2447
     23 C         142.5031  138.6096  161.2607 C.ar    1  UNL1        0.1283
     24 C         141.0219  138.4289  161.4136 C.ar    1  UNL1        0.2121
     25 N         140.6980  138.4754  162.8775 N.ar    1  UNL1       -0.2989
     26 C         141.9790  138.6848  163.6293 C.ar    1  UNL1        0.0626
     27 C         142.2737  138.8107  165.0946 C.ar    1  UNL1        0.0173
     28 C         143.6840  139.0195  165.5607 C.ar    1  UNL1        0.0015
     29 C         144.7997  139.1024  164.5615 C.ar    1  UNL1        0.0001
     30 C         144.5050  138.9765  163.0961 C.ar    1  UNL1        0.0018
     31 C         143.0946  138.7677  162.6300 C.ar    1  UNL1        0.0266
     32 C         139.2784  138.3211  163.3368 C.3     1  UNL1        0.1127
     33 C         138.1827  138.1203  162.3322 C.3     1  UNL1        0.0719
     34 C         138.5066  138.0738  160.8683 C.3     1  UNL1        0.2091
     35 O         139.9262  138.2281  160.4090 O.3     1  UNL1       -0.4611
@<TRIPOS>UNITY_ATOM_ATTR
17 1
charge -1
@<TRIPOS>BOND
     1    14    15    1
     2    15    16    1
     3    16    17   ar
     4    16    18   ar
     5    15     8    1
     6     8     9   ar
     7     9    10   ar
     8    10    11   ar
     9    11     7    1
    10     7     1    1
    11     1     2    1
    12     2     3    1
    13     3     4    1
    14     4    19    1
    15    19    20    1
    16    20    21    1
    17    21    22    2
    18    21    23    1
    19    23    24   ar
    20    24    25   ar
    21    25    26   ar
    22    26    27   ar
    23    27    28   ar
    24    28    29   ar
    25    29    30   ar
    26    30    31   ar
    27    25    32    1
    28    32    33    1
    29    33    34    1
    30    34    35    1
    31     4     5    1
    32     5     6    1
    33    11    12   ar
    34    12    13   ar
    35    13     8   ar
    36     6     1    1
    37    31    23   ar
    38    35    24    1
    39    31    26   ar
