@<TRIPOS>MOLECULE
*****
 37 41 0 0 0
SMALL
GASTEIGER

@<TRIPOS>ATOM
      1 C         143.4442  143.8701  162.1362 C.3     1  UNL1        0.1565
      2 O         144.9223  144.0307  162.3354 O.3     1  UNL1       -0.3781
      3 C         142.1428  143.3832  161.5713 C.3     1  UNL1        0.0372
      4 C         140.8463  143.8915  162.1286 C.3     1  UNL1        0.0186
      5 C         140.8512  144.8868  163.2509 C.3     1  UNL1        0.0544
      6 C         142.1527  145.3737  163.8158 C.3     1  UNL1        0.0186
      7 C         143.4492  144.8653  163.2585 C.3     1  UNL1        0.0372
      8 H         145.3967  143.4665  161.7050 H       1  UNL1        0.2109
      9 N         143.3955  142.9914  159.6917 N.am    1  UNL1       -0.2808
     10 C         143.9526  142.9307  161.0831 C.2     1  UNL1        0.2502
     11 O         145.0180  141.9305  161.4214 O.2     1  UNL1       -0.2723
     12 H         142.6962  143.6479  159.4696 H       1  UNL1        0.1550
     13 C         141.1991  139.1554  158.8487 C.ar    1  UNL1        0.2251
     14 C         141.7074  138.2159  157.7957 C.ar    1  UNL1        0.0593
     15 C         142.9479  138.5552  157.0235 C.ar    1  UNL1        0.0255
     16 C         143.6800  139.8338  157.3045 C.ar    1  UNL1        0.1004
     17 N         144.9205  140.1731  156.5324 N.ar    1  UNL1       -0.2422
     18 C         145.6526  141.4517  156.8133 C.ar    1  UNL1        0.1002
     19 C         145.1443  142.3912  157.8665 C.ar    1  UNL1        0.0369
     20 C         143.9038  142.0520  158.6386 C.ar    1  UNL1        0.0714
     21 C         143.1717  140.7733  158.3576 C.ar    1  UNL1        0.1154
     22 N         141.9312  140.4340  159.1297 N.ar    1  UNL1       -0.2089
     23 C         138.7319  139.6680  159.4814 C.3     1  UNL1        0.2542
     24 O         139.9586  138.8161  159.6208 O.3     1  UNL1       -0.4561
     25 N         139.5547  145.3951  163.8082 N.3     1  UNL1       -0.2948
     26 H         139.0163  145.7548  163.0201 H       1  UNL1        0.1235
     27 C         138.6491  144.4690  164.5646 C.3     1  UNL1        0.0973
     28 C         138.4848  143.0475  164.1149 C.ar    1  UNL1        0.0160
     29 C         137.5168  142.7150  163.0183 C.ar    1  UNL1        0.0993
     30 N         137.3525  141.2933  162.5686 N.ar    1  UNL1       -0.2078
     31 C         138.1560  140.2045  163.2154 C.ar    1  UNL1        0.2601
     32 C         139.1240  140.5370  164.3120 C.ar    1  UNL1        0.1913
     33 C         139.2883  141.9585  164.7617 C.ar    1  UNL1        0.0404
     34 O         139.9275  139.4480  164.9589 O.3     1  UNL1       -0.4667
     35 C         139.7632  138.0265  164.5092 C.3     1  UNL1        0.2528
     36 C         138.7952  137.6940  163.4126 C.3     1  UNL1        0.2543
     37 O         137.9917  138.7828  162.7657 O.3     1  UNL1       -0.4541
@<TRIPOS>BOND
     1    23    24    1
     2    24    13    1
     3    13    14   ar
     4    14    15   ar
     5    15    16   ar
     6    16    17   ar
     7    17    18   ar
     8    18    19   ar
     9    19    20   ar
    10    20     9    1
    11     9    10   am
    12    10    11    2
    13    10     1    1
    14     1     2    1
    15     1     3    1
    16     3     4    1
    17     4     5    1
    18     5    25    1
    19    25    27    1
    20    27    28    1
    21    28    29   ar
    22    29    30   ar
    23    30    31   ar
    24    31    32   ar
    25    32    33   ar
    26    32    34    1
    27    34    35    1
    28    35    36    1
    29    36    37    1
    30     5     6    1
    31     6     7    1
    32    20    21   ar
    33    21    22   ar
    34    22    13   ar
    35    21    16   ar
    36     7     1    1
    37    33    28   ar
    38    37    31    1
    39     9    12    1
    40     2     8    1
    41    25    26    1
@<TRIPOS>MOLECULE
*****
 37 41 0 0 0
SMALL
GASTEIGER

@<TRIPOS>ATOM
      1 C         138.2703  139.4700  160.8403 C.3     1  UNL1        0.1565
      2 O         136.8303  139.8879  160.8859 O.3     1  UNL1       -0.3781
      3 C         139.6956  139.3717  160.3834 C.3     1  UNL1        0.0372
      4 C         140.6628  138.4985  161.1264 C.3     1  UNL1        0.0186
      5 C         140.2046  137.7236  162.3263 C.3     1  UNL1        0.0544
      6 C         138.7793  137.8219  162.7832 C.3     1  UNL1        0.0186
      7 C         137.8121  138.6951  162.0402 C.3     1  UNL1        0.0372
      8 H         136.6488  140.5026  160.1579 H       1  UNL1        0.2109
      9 N         138.1922  139.8240  158.2676 N.am    1  UNL1       -0.2808
     10 C         138.2284  140.3900  159.6563 C.2     1  UNL1        0.2502
     11 O         138.2227  141.8759  159.8609 O.2     1  UNL1       -0.2723
     12 H         138.1959  138.8487  158.1333 H       1  UNL1        0.1550
     13 C         134.3509  140.3903  155.9931 C.ar    1  UNL1        0.2251
     14 C         134.3090  141.3102  154.8091 C.ar    1  UNL1        0.0593
     15 C         135.5475  142.0414  154.3833 C.ar    1  UNL1        0.0255
     16 C         136.8279  141.8527  155.1414 C.ar    1  UNL1        0.1004
     17 N         138.0665  142.5839  154.7156 N.ar    1  UNL1       -0.2422
     18 C         139.3469  142.3952  155.4737 C.ar    1  UNL1        0.1002
     19 C         139.3888  141.4752  156.6578 C.ar    1  UNL1        0.0369
     20 C         138.1503  140.7440  157.0836 C.ar    1  UNL1        0.0714
     21 C         136.8698  140.9327  156.3254 C.ar    1  UNL1        0.1154
     22 N         135.6313  140.2015  156.7512 N.ar    1  UNL1       -0.2089
     23 C         133.0024  139.1191  157.8140 C.3     1  UNL1        0.2542
     24 O         133.1123  139.6590  156.4189 O.3     1  UNL1       -0.4561
     25 N         141.1718  136.8504  163.0693 N.3     1  UNL1       -0.2948
     26 H         142.0500  136.8763  162.5511 H       1  UNL1        0.1235
     27 C         141.5049  137.1491  164.5010 C.3     1  UNL1        0.0973
     28 C         141.9527  138.5253  164.8955 C.ar    1  UNL1        0.0160
     29 C         141.2504  139.2538  166.0028 C.ar    1  UNL1        0.0993
     30 N         141.6983  140.6300  166.3974 N.ar    1  UNL1       -0.2078
     31 C         142.8482  141.2776  165.6847 C.ar    1  UNL1        0.2601
     32 C         143.5505  140.5491  164.5773 C.ar    1  UNL1        0.1913
     33 C         143.1027  139.1730  164.1828 C.ar    1  UNL1        0.0404
     34 O         144.7005  141.1968  163.8646 O.3     1  UNL1       -0.4667
     35 C         145.1483  142.5729  164.2591 C.3     1  UNL1        0.2528
     36 C         144.4460  143.3014  165.3665 C.3     1  UNL1        0.2543
     37 O         143.2961  142.6538  166.0792 O.3     1  UNL1       -0.4541
@<TRIPOS>BOND
     1    23    24    1
     2    24    13    1
     3    13    14   ar
     4    14    15   ar
     5    15    16   ar
     6    16    17   ar
     7    17    18   ar
     8    18    19   ar
     9    19    20   ar
    10    20     9    1
    11     9    10   am
    12    10    11    2
    13    10     1    1
    14     1     2    1
    15     1     3    1
    16     3     4    1
    17     4     5    1
    18     5    25    1
    19    25    27    1
    20    27    28    1
    21    28    29   ar
    22    29    30   ar
    23    30    31   ar
    24    31    32   ar
    25    32    33   ar
    26    32    34    1
    27    34    35    1
    28    35    36    1
    29    36    37    1
    30     5     6    1
    31     6     7    1
    32    20    21   ar
    33    21    22   ar
    34    22    13   ar
    35    21    16   ar
    36     7     1    1
    37    33    28   ar
    38    37    31    1
    39     9    12    1
    40     2     8    1
    41    25    26    1
@<TRIPOS>MOLECULE
*****
 37 41 0 0 0
SMALL
GASTEIGER

@<TRIPOS>ATOM
      1 C         142.6580  138.3974  161.5821 C.3     1  UNL1        0.1565
      2 O         141.7075  137.2660  161.8401 O.3     1  UNL1       -0.3781
      3 C         143.4203  139.4573  160.8437 C.3     1  UNL1        0.0372
      4 C         144.3943  140.3300  161.5783 C.3     1  UNL1        0.0186
      5 C         144.6060  140.1427  163.0514 C.3     1  UNL1        0.0544
      6 C         143.8437  139.0828  163.7899 C.3     1  UNL1        0.0186
      7 C         142.8697  138.2101  163.0553 C.3     1  UNL1        0.0372
      8 H         141.2694  137.0164  161.0115 H       1  UNL1        0.2109
      9 N         143.0566  138.0057  159.0448 N.am    1  UNL1       -0.2808
     10 C         142.1162  138.1917  160.1986 C.2     1  UNL1        0.2502
     11 O         140.6341  138.1721  159.9688 O.2     1  UNL1       -0.2723
     12 H         144.0294  138.0185  159.1957 H       1  UNL1        0.1550
     13 C         143.6511  134.0630  156.9588 C.ar    1  UNL1        0.2251
     14 C         143.1093  133.8574  155.5753 C.ar    1  UNL1        0.0593
     15 C         142.3694  134.9659  154.8871 C.ar    1  UNL1        0.0255
     16 C         142.1713  136.2801  155.5824 C.ar    1  UNL1        0.1004
     17 N         141.4313  137.3887  154.8942 N.ar    1  UNL1       -0.2422
     18 C         141.2332  138.7029  155.5896 C.ar    1  UNL1        0.1002
     19 C         141.7750  138.9086  156.9732 C.ar    1  UNL1        0.0369
     20 C         142.5149  137.8000  157.6613 C.ar    1  UNL1        0.0714
     21 C         142.7130  136.4858  156.9659 C.ar    1  UNL1        0.1154
     22 N         143.4529  135.3772  157.6541 N.ar    1  UNL1       -0.2089
     23 C         145.0170  131.8562  156.8395 C.3     1  UNL1        0.2542
     24 O         144.3910  132.9544  157.6470 O.3     1  UNL1       -0.4561
     25 N         145.5800  141.0154  163.7861 N.3     1  UNL1       -0.2948
     26 H         146.3121  141.2645  163.1209 H       1  UNL1        0.1235
     27 C         145.1140  142.2945  164.4159 C.3     1  UNL1        0.0973
     28 C         144.0135  143.0881  163.7763 C.ar    1  UNL1        0.0160
     29 C         144.2712  143.8354  162.5015 C.ar    1  UNL1        0.0993
     30 N         143.1707  144.6291  161.8618 N.ar    1  UNL1       -0.2078
     31 C         141.8127  144.6755  162.4970 C.ar    1  UNL1        0.2601
     32 C         141.5550  143.9282  163.7719 C.ar    1  UNL1        0.1913
     33 C         142.6554  143.1346  164.4115 C.ar    1  UNL1        0.0404
     34 O         140.1969  143.9747  164.4070 O.3     1  UNL1       -0.4667
     35 C         139.0965  144.7683  163.7674 C.3     1  UNL1        0.2528
     36 C         139.3542  145.5156  162.4925 C.3     1  UNL1        0.2543
     37 O         140.7122  145.4692  161.8574 O.3     1  UNL1       -0.4541
@<TRIPOS>BOND
     1    23    24    1
     2    24    13    1
     3    13    14   ar
     4    14    15   ar
     5    15    16   ar
     6    16    17   ar
     7    17    18   ar
     8    18    19   ar
     9    19    20   ar
    10    20     9    1
    11     9    10   am
    12    10    11    2
    13    10     1    1
    14     1     2    1
    15     1     3    1
    16     3     4    1
    17     4     5    1
    18     5    25    1
    19    25    27    1
    20    27    28    1
    21    28    29   ar
    22    29    30   ar
    23    30    31   ar
    24    31    32   ar
    25    32    33   ar
    26    32    34    1
    27    34    35    1
    28    35    36    1
    29    36    37    1
    30     5     6    1
    31     6     7    1
    32    20    21   ar
    33    21    22   ar
    34    22    13   ar
    35    21    16   ar
    36     7     1    1
    37    33    28   ar
    38    37    31    1
    39     9    12    1
    40     2     8    1
    41    25    26    1
@<TRIPOS>MOLECULE
*****
 37 41 0 0 0
SMALL
GASTEIGER

@<TRIPOS>ATOM
      1 C         141.5329  138.0271  161.9381 C.3     1  UNL1        0.1565
      2 O         142.9964  138.1585  161.6362 O.3     1  UNL1       -0.3781
      3 C         140.0495  137.9670  161.7242 C.3     1  UNL1        0.0372
      4 C         139.1319  137.7472  162.8903 C.3     1  UNL1        0.0186
      5 C         139.6979  137.5874  164.2703 C.3     1  UNL1        0.0544
      6 C         141.1813  137.6475  164.4841 C.3     1  UNL1        0.0186
      7 C         142.0989  137.8673  163.3180 C.3     1  UNL1        0.0372
      8 H         143.1188  138.2998  160.6844 H       1  UNL1        0.2109
      9 N         142.7179  138.0828  159.6266 N.am    1  UNL1       -0.2808
     10 C         141.4752  138.2325  160.4533 C.2     1  UNL1        0.2502
     11 O         140.1749  138.5875  159.7953 O.2     1  UNL1       -0.2723
     12 H         143.5714  137.8498  160.0585 H       1  UNL1        0.1550
     13 C         143.2022  134.5752  156.8495 C.ar    1  UNL1        0.2251
     14 C         143.1445  134.7806  155.3648 C.ar    1  UNL1        0.0593
     15 C         142.9254  136.1552  154.8057 C.ar    1  UNL1        0.0255
     16 C         142.7639  137.3244  155.7314 C.ar    1  UNL1        0.1004
     17 N         142.5448  138.6990  155.1724 N.ar    1  UNL1       -0.2422
     18 C         142.3834  139.8681  156.0980 C.ar    1  UNL1        0.1002
     19 C         142.4411  139.6628  157.5828 C.ar    1  UNL1        0.0369
     20 C         142.6602  138.2882  158.1419 C.ar    1  UNL1        0.0714
     21 C         142.8216  137.1190  157.2161 C.ar    1  UNL1        0.1154
     22 N         143.0408  135.7444  157.7752 N.ar    1  UNL1       -0.2089
     23 C         144.7814  132.7971  157.8955 C.3     1  UNL1        0.2542
     24 O         143.4213  133.2007  157.4085 O.3     1  UNL1       -0.4561
     25 N         138.7803  137.3676  165.4363 N.3     1  UNL1       -0.2948
     26 H         139.3197  136.8719  166.1461 H       1  UNL1        0.1235
     27 C         138.1409  138.5402  166.1190 C.3     1  UNL1        0.0973
     28 C         138.5928  139.9337  165.7969 C.ar    1  UNL1        0.0160
     29 C         139.7400  140.5424  166.5476 C.ar    1  UNL1        0.0993
     30 N         140.1920  141.9360  166.2255 N.ar    1  UNL1       -0.2078
     31 C         139.4969  142.7208  165.1527 C.ar    1  UNL1        0.2601
     32 C         138.3498  142.1121  164.4020 C.ar    1  UNL1        0.1913
     33 C         137.8978  140.7186  164.7241 C.ar    1  UNL1        0.0404
     34 O         137.6547  142.8970  163.3292 O.3     1  UNL1       -0.4667
     35 C         138.1067  144.2905  163.0071 C.3     1  UNL1        0.2528
     36 C         139.2539  144.8992  163.7579 C.3     1  UNL1        0.2543
     37 O         139.9489  144.1144  164.8306 O.3     1  UNL1       -0.4541
@<TRIPOS>BOND
     1    23    24    1
     2    24    13    1
     3    13    14   ar
     4    14    15   ar
     5    15    16   ar
     6    16    17   ar
     7    17    18   ar
     8    18    19   ar
     9    19    20   ar
    10    20     9    1
    11     9    10   am
    12    10    11    2
    13    10     1    1
    14     1     2    1
    15     1     3    1
    16     3     4    1
    17     4     5    1
    18     5    25    1
    19    25    27    1
    20    27    28    1
    21    28    29   ar
    22    29    30   ar
    23    30    31   ar
    24    31    32   ar
    25    32    33   ar
    26    32    34    1
    27    34    35    1
    28    35    36    1
    29    36    37    1
    30     5     6    1
    31     6     7    1
    32    20    21   ar
    33    21    22   ar
    34    22    13   ar
    35    21    16   ar
    36     7     1    1
    37    33    28   ar
    38    37    31    1
    39     9    12    1
    40     2     8    1
    41    25    26    1
@<TRIPOS>MOLECULE
*****
 37 41 0 0 0
SMALL
GASTEIGER

@<TRIPOS>ATOM
      1 C         138.4984  139.2404  162.8874 C.3     1  UNL1        0.1565
      2 O         138.6474  138.3069  161.7227 O.3     1  UNL1       -0.3781
      3 C         138.2623  140.5047  163.6591 C.3     1  UNL1        0.0372
      4 C         138.3290  140.4923  165.1576 C.3     1  UNL1        0.0186
      5 C         138.6319  139.2155  165.8843 C.3     1  UNL1        0.0544
      6 C         138.8680  137.9512  165.1125 C.3     1  UNL1        0.0186
      7 C         138.8013  137.9636  163.6141 C.3     1  UNL1        0.0372
      8 H         138.5080  138.7957  160.8966 H       1  UNL1        0.2109
      9 N         139.0775  140.1125  160.5095 N.am    1  UNL1       -0.2808
     10 C         138.2473  140.1930  161.7562 C.2     1  UNL1        0.2502
     11 O         137.1659  141.2261  161.8718 O.2     1  UNL1       -0.2723
     12 H         139.7873  139.4345  160.4336 H       1  UNL1        0.1550
     13 C         141.4152  143.9480  160.2368 C.ar    1  UNL1        0.2251
     14 C         141.1640  144.9006  159.1057 C.ar    1  UNL1        0.0593
     15 C         140.1337  144.5747  158.0655 C.ar    1  UNL1        0.0255
     16 C         139.3545  143.2962  158.1563 C.ar    1  UNL1        0.1004
     17 N         138.3241  142.9703  157.1161 N.ar    1  UNL1       -0.2422
     18 C         137.5449  141.6918  157.2069 C.ar    1  UNL1        0.1002
     19 C         137.7960  140.7392  158.3381 C.ar    1  UNL1        0.0369
     20 C         138.8264  141.0651  159.3784 C.ar    1  UNL1        0.0714
     21 C         139.6056  142.3436  159.2875 C.ar    1  UNL1        0.1154
     22 N         140.6360  142.6695  160.3277 N.ar    1  UNL1       -0.2089
     23 C         143.5828  143.3286  161.5282 C.3     1  UNL1        0.2542
     24 O         142.4456  144.2739  161.2771 O.3     1  UNL1       -0.4561
     25 N         138.6986  139.2031  167.3827 N.3     1  UNL1       -0.2948
     26 H         138.6594  138.2255  167.6711 H       1  UNL1        0.1235
     27 C         139.8733  139.8154  168.0863 C.3     1  UNL1        0.0973
     28 C         141.0051  140.3954  167.2909 C.ar    1  UNL1        0.0160
     29 C         141.2013  141.8816  167.2396 C.ar    1  UNL1        0.0993
     30 N         142.3332  142.4616  166.4442 N.ar    1  UNL1       -0.2078
     31 C         143.2687  141.5554  165.7003 C.ar    1  UNL1        0.2601
     32 C         143.0725  140.0691  165.7516 C.ar    1  UNL1        0.1913
     33 C         141.9407  139.4892  166.5470 C.ar    1  UNL1        0.0404
     34 O         144.0081  139.1630  165.0077 O.3     1  UNL1       -0.4667
     35 C         145.1399  139.7429  164.2124 C.3     1  UNL1        0.2528
     36 C         145.3362  141.2292  164.1610 C.3     1  UNL1        0.2543
     37 O         144.4007  142.1353  164.9049 O.3     1  UNL1       -0.4541
@<TRIPOS>BOND
     1    23    24    1
     2    24    13    1
     3    13    14   ar
     4    14    15   ar
     5    15    16   ar
     6    16    17   ar
     7    17    18   ar
     8    18    19   ar
     9    19    20   ar
    10    20     9    1
    11     9    10   am
    12    10    11    2
    13    10     1    1
    14     1     2    1
    15     1     3    1
    16     3     4    1
    17     4     5    1
    18     5    25    1
    19    25    27    1
    20    27    28    1
    21    28    29   ar
    22    29    30   ar
    23    30    31   ar
    24    31    32   ar
    25    32    33   ar
    26    32    34    1
    27    34    35    1
    28    35    36    1
    29    36    37    1
    30     5     6    1
    31     6     7    1
    32    20    21   ar
    33    21    22   ar
    34    22    13   ar
    35    21    16   ar
    36     7     1    1
    37    33    28   ar
    38    37    31    1
    39     9    12    1
    40     2     8    1
    41    25    26    1
@<TRIPOS>MOLECULE
*****
 37 41 0 0 0
SMALL
GASTEIGER

@<TRIPOS>ATOM
      1 C         141.8596  144.7509  161.8634 C.3     1  UNL1        0.1565
      2 O         140.9992  145.8741  162.3618 O.3     1  UNL1       -0.3781
      3 C         142.4082  143.6929  160.9527 C.3     1  UNL1        0.0372
      4 C         143.5556  142.8377  161.4022 C.3     1  UNL1        0.0186
      5 C         144.1544  143.0405  162.7625 C.3     1  UNL1        0.0544
      6 C         143.6058  144.0986  163.6732 C.3     1  UNL1        0.0186
      7 C         142.4584  144.9538  163.2237 C.3     1  UNL1        0.0372
      8 H         140.3506  146.1113  161.6807 H       1  UNL1        0.2109
      9 N         141.4008  144.4645  159.3222 N.am    1  UNL1       -0.2808
     10 C         140.9621  144.9381  160.6762 C.2     1  UNL1        0.2502
     11 O         139.6259  145.5989  160.8430 O.2     1  UNL1       -0.2723
     12 H         142.2779  144.0308  159.2127 H       1  UNL1        0.1550
     13 C         138.4040  141.2855  158.2439 C.ar    1  UNL1        0.2251
     14 C         137.5065  141.4726  157.0567 C.ar    1  UNL1        0.0593
     15 C         137.6079  142.7195  156.2290 C.ar    1  UNL1        0.0255
     16 C         138.6068  143.7791  156.5884 C.ar    1  UNL1        0.1004
     17 N         138.7082  145.0259  155.7607 N.ar    1  UNL1       -0.2422
     18 C         139.7071  146.0856  156.1201 C.ar    1  UNL1        0.1002
     19 C         140.6047  145.8985  157.3073 C.ar    1  UNL1        0.0369
     20 C         140.5033  144.6517  158.1350 C.ar    1  UNL1        0.0714
     21 C         139.5043  143.5920  157.7756 C.ar    1  UNL1        0.1154
     22 N         139.4029  142.3451  158.6033 N.ar    1  UNL1       -0.2089
     23 C         137.7715  140.1096  160.4726 C.3     1  UNL1        0.2542
     24 O         138.3026  140.0386  159.0716 O.3     1  UNL1       -0.4561
     25 N         145.3018  142.1853  163.2120 N.3     1  UNL1       -0.2948
     26 H         145.8968  142.7737  163.7953 H       1  UNL1        0.1235
     27 C         145.0414  140.9285  163.9882 C.3     1  UNL1        0.0973
     28 C         143.8949  140.0379  163.6111 C.ar    1  UNL1        0.0160
     29 C         144.1074  138.9105  162.6446 C.ar    1  UNL1        0.0993
     30 N         142.9608  138.0199  162.2674 N.ar    1  UNL1       -0.2078
     31 C         141.6020  138.2565  162.8566 C.ar    1  UNL1        0.2601
     32 C         141.3894  139.3839  163.8231 C.ar    1  UNL1        0.1913
     33 C         142.5359  140.2745  164.2002 C.ar    1  UNL1        0.0404
     34 O         140.0304  139.6205  164.4122 O.3     1  UNL1       -0.4667
     35 C         138.8839  138.7299  164.0351 C.3     1  UNL1        0.2528
     36 C         139.0965  137.6025  163.0686 C.3     1  UNL1        0.2543
     37 O         140.4554  137.3659  162.4794 O.3     1  UNL1       -0.4541
@<TRIPOS>BOND
     1    23    24    1
     2    24    13    1
     3    13    14   ar
     4    14    15   ar
     5    15    16   ar
     6    16    17   ar
     7    17    18   ar
     8    18    19   ar
     9    19    20   ar
    10    20     9    1
    11     9    10   am
    12    10    11    2
    13    10     1    1
    14     1     2    1
    15     1     3    1
    16     3     4    1
    17     4     5    1
    18     5    25    1
    19    25    27    1
    20    27    28    1
    21    28    29   ar
    22    29    30   ar
    23    30    31   ar
    24    31    32   ar
    25    32    33   ar
    26    32    34    1
    27    34    35    1
    28    35    36    1
    29    36    37    1
    30     5     6    1
    31     6     7    1
    32    20    21   ar
    33    21    22   ar
    34    22    13   ar
    35    21    16   ar
    36     7     1    1
    37    33    28   ar
    38    37    31    1
    39     9    12    1
    40     2     8    1
    41    25    26    1
@<TRIPOS>MOLECULE
*****
 37 41 0 0 0
SMALL
GASTEIGER

@<TRIPOS>ATOM
      1 C         142.9867  143.2351  164.8626 C.3     1  UNL1        0.1565
      2 O         144.1041  143.1419  165.8591 O.3     1  UNL1       -0.3781
      3 C         141.6439  143.0282  164.2272 C.3     1  UNL1        0.0372
      4 C         141.3386  143.6531  162.8982 C.3     1  UNL1        0.0186
      5 C         142.3764  144.4850  162.2046 C.3     1  UNL1        0.0544
      6 C         143.7193  144.6920  162.8399 C.3     1  UNL1        0.0186
      7 C         144.0245  144.0671  164.1689 C.3     1  UNL1        0.0372
      8 H         143.8226  142.5968  166.6104 H       1  UNL1        0.2109
      9 N         141.0032  142.7555  166.4705 N.am    1  UNL1       -0.2808
     10 C         142.3371  142.3709  165.9022 C.2     1  UNL1        0.2502
     11 O         143.0212  141.1220  166.3736 O.2     1  UNL1       -0.2723
     12 H         140.5542  143.5752  166.1612 H       1  UNL1        0.1550
     13 C         138.5290  139.2098  165.2231 C.ar    1  UNL1        0.2251
     14 C         137.8793  138.3456  166.2627 C.ar    1  UNL1        0.0593
     15 C         138.0543  138.6632  167.7182 C.ar    1  UNL1        0.0255
     16 C         138.8790  139.8451  168.1341 C.ar    1  UNL1        0.1004
     17 N         139.0541  140.1627  169.5895 N.ar    1  UNL1       -0.2422
     18 C         139.8788  141.3446  170.0054 C.ar    1  UNL1        0.1002
     19 C         140.5285  142.2089  168.9657 C.ar    1  UNL1        0.0369
     20 C         140.3535  141.8913  167.5102 C.ar    1  UNL1        0.0714
     21 C         139.5287  140.7093  167.0944 C.ar    1  UNL1        0.1154
     22 N         139.3537  140.3917  165.6389 N.ar    1  UNL1       -0.2089
     23 C         139.0129  137.6796  163.1800 C.3     1  UNL1        0.2542
     24 O         138.3539  138.8922  163.7676 O.3     1  UNL1       -0.4561
     25 N         142.0711  145.1100  160.8755 N.3     1  UNL1       -0.2948
     26 H         142.7037  145.9033  160.7710 H       1  UNL1        0.1235
     27 C         142.1855  144.2967  159.6204 C.3     1  UNL1        0.0973
     28 C         142.0653  142.8028  159.6810 C.ar    1  UNL1        0.0160
     29 C         140.8312  142.1280  159.1597 C.ar    1  UNL1        0.0993
     30 N         140.7110  140.6339  159.2203 N.ar    1  UNL1       -0.2078
     31 C         141.8247  139.8149  159.8022 C.ar    1  UNL1        0.2601
     32 C         143.0588  140.4897  160.3235 C.ar    1  UNL1        0.1913
     33 C         143.1790  141.9837  160.2628 C.ar    1  UNL1        0.0404
     34 O         144.1725  139.6706  160.9053 O.3     1  UNL1       -0.4667
     35 C         144.0523  138.1767  160.9659 C.3     1  UNL1        0.2528
     36 C         142.8182  137.5019  160.4446 C.3     1  UNL1        0.2543
     37 O         141.7045  138.3209  159.8628 O.3     1  UNL1       -0.4541
@<TRIPOS>BOND
     1    23    24    1
     2    24    13    1
     3    13    14   ar
     4    14    15   ar
     5    15    16   ar
     6    16    17   ar
     7    17    18   ar
     8    18    19   ar
     9    19    20   ar
    10    20     9    1
    11     9    10   am
    12    10    11    2
    13    10     1    1
    14     1     2    1
    15     1     3    1
    16     3     4    1
    17     4     5    1
    18     5    25    1
    19    25    27    1
    20    27    28    1
    21    28    29   ar
    22    29    30   ar
    23    30    31   ar
    24    31    32   ar
    25    32    33   ar
    26    32    34    1
    27    34    35    1
    28    35    36    1
    29    36    37    1
    30     5     6    1
    31     6     7    1
    32    20    21   ar
    33    21    22   ar
    34    22    13   ar
    35    21    16   ar
    36     7     1    1
    37    33    28   ar
    38    37    31    1
    39     9    12    1
    40     2     8    1
    41    25    26    1
@<TRIPOS>MOLECULE
*****
 37 41 0 0 0
SMALL
GASTEIGER

@<TRIPOS>ATOM
      1 C         140.1146  138.1826  160.8301 C.3     1  UNL1        0.1565
      2 O         139.4477  138.4396  159.5112 O.3     1  UNL1       -0.3781
      3 C         141.2007  137.9812  161.8447 C.3     1  UNL1        0.0372
      4 C         140.8480  137.7091  163.2770 C.3     1  UNL1        0.0186
      5 C         139.4090  137.6384  163.6947 C.3     1  UNL1        0.0544
      6 C         138.3228  137.8398  162.6800 C.3     1  UNL1        0.0186
      7 C         138.6756  138.1119  161.2477 C.3     1  UNL1        0.0372
      8 H         140.1231  138.5663  158.8266 H       1  UNL1        0.2109
      9 N         141.1814  138.9373  158.5846 N.am    1  UNL1       -0.2808
     10 C         141.3219  138.3425  159.9545 C.2     1  UNL1        0.2502
     11 O         142.6697  137.9077  160.4487 O.2     1  UNL1       -0.2723
     12 H         140.2968  139.2227  158.2602 H       1  UNL1        0.1550
     13 C         143.9221  142.4609  159.1527 C.ar    1  UNL1        0.2251
     14 C         145.1294  142.6209  158.2771 C.ar    1  UNL1        0.0593
     15 C         145.4232  141.6062  157.2121 C.ar    1  UNL1        0.0255
     16 C         144.5097  140.4317  157.0227 C.ar    1  UNL1        0.1004
     17 N         144.8035  139.4171  155.9577 N.ar    1  UNL1       -0.2422
     18 C         143.8900  138.2425  155.7683 C.ar    1  UNL1        0.1002
     19 C         142.6826  138.0826  156.6440 C.ar    1  UNL1        0.0369
     20 C         142.3888  139.0972  157.7090 C.ar    1  UNL1        0.0714
     21 C         143.3024  140.2718  157.8983 C.ar    1  UNL1        0.1154
     22 N         143.0085  141.2864  158.9633 N.ar    1  UNL1       -0.2089
     23 C         144.1419  143.2697  161.6119 C.3     1  UNL1        0.2542
     24 O         143.6282  143.4756  160.2177 O.3     1  UNL1       -0.4561
     25 N         139.0563  137.3664  165.1270 N.3     1  UNL1       -0.2948
     26 H         139.9254  137.1258  165.6037 H       1  UNL1        0.1235
     27 C         138.3906  138.4288  165.9503 C.3     1  UNL1        0.0973
     28 C         138.7342  139.8725  165.7317 C.ar    1  UNL1        0.0160
     29 C         139.8133  140.5186  166.5491 C.ar    1  UNL1        0.0993
     30 N         140.1570  141.9623  166.3304 N.ar    1  UNL1       -0.2078
     31 C         139.4216  142.7598  165.2946 C.ar    1  UNL1        0.2601
     32 C         138.3424  142.1136  164.4772 C.ar    1  UNL1        0.1913
     33 C         137.9988  140.6700  164.6958 C.ar    1  UNL1        0.0404
     34 O         137.6071  142.9111  163.4413 O.3     1  UNL1       -0.4667
     35 C         137.9507  144.3548  163.2227 C.3     1  UNL1        0.2528
     36 C         139.0298  145.0009  164.0401 C.3     1  UNL1        0.2543
     37 O         139.7652  144.2035  165.0759 O.3     1  UNL1       -0.4541
@<TRIPOS>BOND
     1    23    24    1
     2    24    13    1
     3    13    14   ar
     4    14    15   ar
     5    15    16   ar
     6    16    17   ar
     7    17    18   ar
     8    18    19   ar
     9    19    20   ar
    10    20     9    1
    11     9    10   am
    12    10    11    2
    13    10     1    1
    14     1     2    1
    15     1     3    1
    16     3     4    1
    17     4     5    1
    18     5    25    1
    19    25    27    1
    20    27    28    1
    21    28    29   ar
    22    29    30   ar
    23    30    31   ar
    24    31    32   ar
    25    32    33   ar
    26    32    34    1
    27    34    35    1
    28    35    36    1
    29    36    37    1
    30     5     6    1
    31     6     7    1
    32    20    21   ar
    33    21    22   ar
    34    22    13   ar
    35    21    16   ar
    36     7     1    1
    37    33    28   ar
    38    37    31    1
    39     9    12    1
    40     2     8    1
    41    25    26    1
@<TRIPOS>MOLECULE
*****
 37 41 0 0 0
SMALL
GASTEIGER

@<TRIPOS>ATOM
      1 C         140.7878  138.1948  161.9450 C.3     1  UNL1        0.1565
      2 O         141.4722  136.8842  162.1982 O.3     1  UNL1       -0.3781
      3 C         140.4388  139.4998  161.2932 C.3     1  UNL1        0.0372
      4 C         139.3619  140.3655  161.8771 C.3     1  UNL1        0.0186
      5 C         138.6341  139.9260  163.1129 C.3     1  UNL1        0.0544
      6 C         138.9831  138.6209  163.7647 C.3     1  UNL1        0.0186
      7 C         140.0600  137.7553  163.1808 C.3     1  UNL1        0.0372
      8 H         142.1439  136.7328  161.5149 H       1  UNL1        0.2109
      9 N         141.2811  138.5213  159.4151 N.am    1  UNL1       -0.2808
     10 C         141.7533  138.1791  160.7972 C.2     1  UNL1        0.2502
     11 O         143.1911  137.8212  161.0313 O.2     1  UNL1       -0.2723
     12 H         140.3375  138.7562  159.2614 H       1  UNL1        0.1550
     13 C         143.7684  142.1624  158.5174 C.ar    1  UNL1        0.2251
     14 C         144.7339  142.1467  157.3696 C.ar    1  UNL1        0.0593
     15 C         144.8703  140.9173  156.5210 C.ar    1  UNL1        0.0255
     16 C         144.0412  139.7037  156.8202 C.ar    1  UNL1        0.1004
     17 N         144.1776  138.4743  155.9716 N.ar    1  UNL1       -0.2422
     18 C         143.3486  137.2607  156.2708 C.ar    1  UNL1        0.1002
     19 C         142.3830  137.2763  157.4187 C.ar    1  UNL1        0.0369
     20 C         142.2466  138.5056  158.2673 C.ar    1  UNL1        0.0714
     21 C         143.0757  139.7193  157.9680 C.ar    1  UNL1        0.1154
     22 N         142.9393  140.9487  158.8166 N.ar    1  UNL1       -0.2089
     23 C         142.3901  143.6079  160.1789 C.3     1  UNL1        0.2542
     24 O         143.6320  143.3917  159.3660 O.3     1  UNL1       -0.4561
     25 N         137.5572  140.7917  163.6968 N.3     1  UNL1       -0.2948
     26 H         136.9234  140.1726  164.2022 H       1  UNL1        0.1235
     27 C         137.9164  141.9043  164.6364 C.3     1  UNL1        0.0973
     28 C         139.3450  142.1090  165.0453 C.ar    1  UNL1        0.0160
     29 C         139.8940  141.3866  166.2399 C.ar    1  UNL1        0.0993
     30 N         141.3227  141.5913  166.6488 N.ar    1  UNL1       -0.2078
     31 C         142.2022  142.5182  165.8633 C.ar    1  UNL1        0.2601
     32 C         141.6532  143.2406  164.6688 C.ar    1  UNL1        0.1913
     33 C         140.2246  143.0359  164.2599 C.ar    1  UNL1        0.0404
     34 O         142.5328  144.1675  163.8833 O.3     1  UNL1       -0.4667
     35 C         143.9614  144.3722  164.2922 C.3     1  UNL1        0.2528
     36 C         144.5104  143.6498  165.4867 C.3     1  UNL1        0.2543
     37 O         143.6308  142.7229  166.2722 O.3     1  UNL1       -0.4541
@<TRIPOS>BOND
     1    23    24    1
     2    24    13    1
     3    13    14   ar
     4    14    15   ar
     5    15    16   ar
     6    16    17   ar
     7    17    18   ar
     8    18    19   ar
     9    19    20   ar
    10    20     9    1
    11     9    10   am
    12    10    11    2
    13    10     1    1
    14     1     2    1
    15     1     3    1
    16     3     4    1
    17     4     5    1
    18     5    25    1
    19    25    27    1
    20    27    28    1
    21    28    29   ar
    22    29    30   ar
    23    30    31   ar
    24    31    32   ar
    25    32    33   ar
    26    32    34    1
    27    34    35    1
    28    35    36    1
    29    36    37    1
    30     5     6    1
    31     6     7    1
    32    20    21   ar
    33    21    22   ar
    34    22    13   ar
    35    21    16   ar
    36     7     1    1
    37    33    28   ar
    38    37    31    1
    39     9    12    1
    40     2     8    1
    41    25    26    1
