@<TRIPOS>MOLECULE
*****
 34 37 0 0 0
SMALL
GASTEIGER

@<TRIPOS>ATOM
      1 N         142.0321  139.6745  167.4386 N.3     1  UNL1       -0.2715
      2 C         140.8452  140.5554  167.1831 C.3     1  UNL1        0.0885
      3 C         140.2746  140.6626  165.8000 C.3     1  UNL1        0.0779
      4 N         140.8908  139.8888  164.6724 N.3     1  UNL1       -0.2724
      5 C         142.0777  139.0079  164.9279 C.3     1  UNL1        0.0882
      6 C         142.6483  138.9008  166.3110 C.3     1  UNL1        0.0736
      7 C         143.8353  138.0198  166.5664 C.3     1  UNL1        0.0188
      8 C         140.3201  139.9960  163.2894 C.3     1  UNL1        0.0610
      9 C         139.0646  139.2550  162.9366 C.3     1  UNL1        0.0375
     10 C         138.4940  139.3621  161.5535 C.3     1  UNL1        0.0950
     11 N         139.1788  140.2103  160.5232 N.pl3   1  UNL1       -0.2784
     12 C         140.4343  140.9513  160.8760 C.3     1  UNL1        0.0950
     13 C         141.0050  140.8441  162.2591 C.3     1  UNL1        0.0375
     14 C         138.6082  140.3174  159.1402 C.ar    1  UNL1        0.2194
     15 N         138.8406  139.3549  158.0135 N.ar    1  UNL1       -0.1117
     16 N         138.0810  139.8485  156.8179 N.ar    1  UNL1       -0.1121
     17 C         137.3790  141.1161  157.2057 C.ar    1  UNL1        0.2131
     18 N         136.5048  141.9479  156.3148 N.pl3   1  UNL1       -0.3277
     19 N         137.7049  141.4059  158.6410 N.ar    1  UNL1       -0.2979
     20 H         136.3500  141.6737  155.3820 H       1  UNL1        0.1451
     21 H         136.0858  142.7680  156.6628 H       1  UNL1        0.1451
     22 H         137.3825  142.1754  159.1635 H       1  UNL1        0.1713
     23 C         142.6028  139.5674  168.8216 C.3     1  UNL1        0.0721
     24 C         141.6418  140.7792  170.9092 C.3     1  UNL1        0.0014
     25 C         142.5778  140.7551  169.7374 C.3     1  UNL1        0.0160
     26 C         143.4889  141.9189  169.4812 C.3     1  UNL1        0.0014
     27 C         139.0876  141.5435  165.5446 C.3     1  UNL1        0.0437
     28 C         139.2219  142.7434  164.6545 C.ar    1  UNL1       -0.0207
     29 C         138.1210  143.0947  163.6982 C.ar    1  UNL1       -0.0034
     30 C         138.2552  144.2947  162.8081 C.ar    1  UNL1        0.0111
     31 C         139.4904  145.1432  162.8744 C.ar    1  UNL1        0.0577
     32 CL        139.6246  146.3430  161.9843 Cl      1  UNL1       -0.0822
     33 C         140.5913  144.7918  163.8307 C.ar    1  UNL1        0.0111
     34 C         140.4571  143.5919  164.7208 C.ar    1  UNL1       -0.0034
@<TRIPOS>BOND
     1    24    25    1
     2    25    26    1
     3    25    23    1
     4    23     1    1
     5     1     2    1
     6     2     3    1
     7     3    27    1
     8    27    28    1
     9    28    29   ar
    10    29    30   ar
    11    30    31   ar
    12    31    32    1
    13    31    33   ar
    14    33    34   ar
    15     3     4    1
    16     4     8    1
    17     8     9    1
    18     9    10    1
    19    10    11    1
    20    11    14    1
    21    14    15   ar
    22    15    16   ar
    23    16    17   ar
    24    17    18    1
    25    17    19   ar
    26    11    12    1
    27    12    13    1
    28     4     5    1
    29     5     6    1
    30     6     7    1
    31     6     1    1
    32    34    28   ar
    33    13     8    1
    34    19    14   ar
    35    18    20    1
    36    18    21    1
    37    19    22    1
@<TRIPOS>MOLECULE
*****
 34 37 0 0 0
SMALL
GASTEIGER

@<TRIPOS>ATOM
      1 N         141.0826  139.1715  160.8870 N.3     1  UNL1       -0.2715
      2 C         139.9000  140.0289  161.2281 C.3     1  UNL1        0.0885
      3 C         139.6444  141.2931  160.4622 C.3     1  UNL1        0.0779
      4 N         140.5714  141.6998  159.3552 N.3     1  UNL1       -0.2724
      5 C         141.7539  140.8424  159.0142 C.3     1  UNL1        0.0882
      6 C         142.0095  139.5782  159.7801 C.3     1  UNL1        0.0736
      7 C         143.1922  138.7208  159.4391 C.3     1  UNL1        0.0188
      8 C         140.3157  142.9639  158.5893 C.3     1  UNL1        0.0610
      9 C         140.9376  144.2525  159.0397 C.3     1  UNL1        0.0375
     10 C         140.6820  145.5166  158.2738 C.3     1  UNL1        0.0950
     11 N         139.8045  145.4922  157.0575 N.pl3   1  UNL1       -0.2784
     12 C         139.1827  144.2037  156.6071 C.3     1  UNL1        0.0950
     13 C         139.4383  142.9395  157.3730 C.3     1  UNL1        0.0375
     14 C         139.5489  146.7564  156.2916 C.ar    1  UNL1        0.2194
     15 N         139.9134  147.0080  154.8585 N.ar    1  UNL1       -0.1117
     16 N         139.4737  148.3980  154.5055 N.ar    1  UNL1       -0.1121
     17 C         138.8374  149.0054  155.7205 C.ar    1  UNL1        0.2131
     18 N         138.2566  150.3852  155.8150 N.pl3   1  UNL1       -0.3277
     19 N         138.8839  147.9909  156.8243 N.ar    1  UNL1       -0.2979
     20 H         138.2732  150.9810  155.0315 H       1  UNL1        0.1451
     21 H         137.8589  150.6950  156.6607 H       1  UNL1        0.1451
     22 H         138.5386  148.1136  157.7381 H       1  UNL1        0.1713
     23 C         141.3382  137.9074  161.6529 C.3     1  UNL1        0.0721
     24 C         143.0999  138.7767  163.3531 C.3     1  UNL1        0.0014
     25 C         141.8686  137.9738  163.0544 C.3     1  UNL1        0.0160
     26 C         141.1677  137.2373  164.1573 C.3     1  UNL1        0.0014
     27 C         138.4618  142.1505  160.8032 C.3     1  UNL1        0.0437
     28 C         138.4347  142.9110  162.0958 C.ar    1  UNL1       -0.0207
     29 C         139.2027  144.1927  162.2282 C.ar    1  UNL1       -0.0034
     30 C         139.1755  144.9532  163.5209 C.ar    1  UNL1        0.0111
     31 C         138.3804  144.4320  164.6811 C.ar    1  UNL1        0.0577
     32 CL        138.3533  145.1925  165.9737 Cl      1  UNL1       -0.0822
     33 C         137.6124  143.1504  164.5487 C.ar    1  UNL1        0.0111
     34 C         137.6395  142.3899  163.2561 C.ar    1  UNL1       -0.0034
@<TRIPOS>BOND
     1    24    25    1
     2    25    26    1
     3    25    23    1
     4    23     1    1
     5     1     2    1
     6     2     3    1
     7     3    27    1
     8    27    28    1
     9    28    29   ar
    10    29    30   ar
    11    30    31   ar
    12    31    32    1
    13    31    33   ar
    14    33    34   ar
    15     3     4    1
    16     4     8    1
    17     8     9    1
    18     9    10    1
    19    10    11    1
    20    11    14    1
    21    14    15   ar
    22    15    16   ar
    23    16    17   ar
    24    17    18    1
    25    17    19   ar
    26    11    12    1
    27    12    13    1
    28     4     5    1
    29     5     6    1
    30     6     7    1
    31     6     1    1
    32    34    28   ar
    33    13     8    1
    34    19    14   ar
    35    18    20    1
    36    18    21    1
    37    19    22    1
@<TRIPOS>MOLECULE
*****
 34 37 0 0 0
SMALL
GASTEIGER

@<TRIPOS>ATOM
      1 N         142.9512  141.5597  168.2619 N.3     1  UNL1       -0.2715
      2 C         143.3099  142.5238  167.1703 C.3     1  UNL1        0.0885
      3 C         143.3382  142.0639  165.7428 C.3     1  UNL1        0.0779
      4 N         143.0077  140.6399  165.4070 N.3     1  UNL1       -0.2724
      5 C         142.6490  139.6757  166.4986 C.3     1  UNL1        0.0882
      6 C         142.6207  140.1356  167.9261 C.3     1  UNL1        0.0736
      7 C         142.2619  139.1714  169.0177 C.3     1  UNL1        0.0188
      8 C         143.0360  140.1799  163.9795 C.3     1  UNL1        0.0610
      9 C         141.8075  140.3022  163.1277 C.3     1  UNL1        0.0375
     10 C         141.8357  139.8422  161.7002 C.3     1  UNL1        0.0950
     11 N         143.0926  139.2601  161.1246 N.pl3   1  UNL1       -0.2784
     12 C         144.3212  139.1379  161.9764 C.3     1  UNL1        0.0950
     13 C         144.2929  139.5978  163.4038 C.3     1  UNL1        0.0375
     14 C         143.1209  138.8002  159.6971 C.ar    1  UNL1        0.2194
     15 N         143.7757  139.5159  158.5530 N.ar    1  UNL1       -0.1117
     16 N         143.5588  138.7019  157.3119 N.ar    1  UNL1       -0.1121
     17 C         142.7700  137.4830  157.6889 C.ar    1  UNL1        0.2131
     18 N         142.3292  136.3945  156.7557 N.pl3   1  UNL1       -0.3277
     19 N         142.4993  137.5438  159.1631 N.ar    1  UNL1       -0.2979
     20 H         142.5567  136.4441  155.7992 H       1  UNL1        0.1451
     21 H         141.8124  135.6305  157.0998 H       1  UNL1        0.1451
     22 H         142.0012  136.8763  159.6879 H       1  UNL1        0.1713
     23 C         142.9229  142.0196  169.6894 C.3     1  UNL1        0.0721
     24 C         140.9249  143.6768  169.7970 C.3     1  UNL1        0.0014
     25 C         141.6297  142.4566  170.3111 C.3     1  UNL1        0.0160
     26 C         141.0411  141.6733  171.4470 C.3     1  UNL1        0.0014
     27 C         143.6970  143.0281  164.6512 C.3     1  UNL1        0.0437
     28 C         142.6181  143.7823  163.9321 C.ar    1  UNL1       -0.0207
     29 C         142.8555  144.2854  162.5391 C.ar    1  UNL1       -0.0034
     30 C         141.7764  145.0396  161.8200 C.ar    1  UNL1        0.0111
     31 C         140.4601  145.2906  162.4940 C.ar    1  UNL1        0.0577
     32 CL        139.3812  146.0448  161.7749 Cl      1  UNL1       -0.0822
     33 C         140.2227  144.7874  163.8870 C.ar    1  UNL1        0.0111
     34 C         141.3017  144.0333  164.6060 C.ar    1  UNL1       -0.0034
@<TRIPOS>BOND
     1    24    25    1
     2    25    26    1
     3    25    23    1
     4    23     1    1
     5     1     2    1
     6     2     3    1
     7     3    27    1
     8    27    28    1
     9    28    29   ar
    10    29    30   ar
    11    30    31   ar
    12    31    32    1
    13    31    33   ar
    14    33    34   ar
    15     3     4    1
    16     4     8    1
    17     8     9    1
    18     9    10    1
    19    10    11    1
    20    11    14    1
    21    14    15   ar
    22    15    16   ar
    23    16    17   ar
    24    17    18    1
    25    17    19   ar
    26    11    12    1
    27    12    13    1
    28     4     5    1
    29     5     6    1
    30     6     7    1
    31     6     1    1
    32    34    28   ar
    33    13     8    1
    34    19    14   ar
    35    18    20    1
    36    18    21    1
    37    19    22    1
@<TRIPOS>MOLECULE
*****
 34 37 0 0 0
SMALL
GASTEIGER

@<TRIPOS>ATOM
      1 N         139.9930  144.9233  157.8997 N.3     1  UNL1       -0.2715
      2 C         140.5083  145.4506  159.2060 C.3     1  UNL1        0.0885
      3 C         140.2878  144.6716  160.4687 C.3     1  UNL1        0.0779
      4 N         139.5519  143.3653  160.4252 N.3     1  UNL1       -0.2724
      5 C         139.0366  142.8380  159.1190 C.3     1  UNL1        0.0882
      6 C         139.2572  143.6169  157.8563 C.3     1  UNL1        0.0736
      7 C         138.7418  143.0895  156.5500 C.3     1  UNL1        0.0188
      8 C         139.3313  142.5863  161.6880 C.3     1  UNL1        0.0610
      9 C         140.2313  141.4348  162.0258 C.3     1  UNL1        0.0375
     10 C         140.0107  140.6559  163.2885 C.3     1  UNL1        0.0950
     11 N         138.8902  141.0284  164.2135 N.pl3   1  UNL1       -0.2784
     12 C         137.9902  142.1799  163.8757 C.3     1  UNL1        0.0950
     13 C         138.2108  142.9588  162.6130 C.3     1  UNL1        0.0375
     14 C         138.6696  140.2494  165.4762 C.ar    1  UNL1        0.2194
     15 N         139.3746  140.4686  166.7820 N.ar    1  UNL1       -0.1117
     16 N         138.8460  139.4691  167.7677 N.ar    1  UNL1       -0.1121
     17 C         137.8143  138.6322  167.0712 C.ar    1  UNL1        0.2131
     18 N         137.0294  137.5100  167.6834 N.pl3   1  UNL1       -0.3277
     19 N         137.7053  139.1144  165.6550 N.ar    1  UNL1       -0.2979
     20 H         137.1726  137.2664  168.6264 H       1  UNL1        0.1451
     21 H         136.3711  137.0172  167.1421 H       1  UNL1        0.1451
     22 H         137.1060  138.7500  164.9642 H       1  UNL1        0.1713
     23 C         140.2136  145.7022  156.6370 C.3     1  UNL1        0.0721
     24 C         138.3237  146.2942  154.9554 C.3     1  UNL1        0.0014
     25 C         139.1605  146.6518  156.1479 C.3     1  UNL1        0.0160
     26 C         138.9441  147.9589  156.8512 C.3     1  UNL1        0.0014
     27 C         140.8031  145.1991  161.7750 C.3     1  UNL1        0.0437
     28 C         141.9472  144.5138  162.4616 C.ar    1  UNL1       -0.0207
     29 C         141.9039  144.2842  163.9433 C.ar    1  UNL1       -0.0034
     30 C         143.0481  143.5990  164.6298 C.ar    1  UNL1        0.0111
     31 C         144.2356  143.1433  163.8346 C.ar    1  UNL1        0.0577
     32 CL        145.3797  142.4580  164.5212 Cl      1  UNL1       -0.0822
     33 C         144.2789  143.3729  162.3529 C.ar    1  UNL1        0.0111
     34 C         143.1348  144.0581  161.6664 C.ar    1  UNL1       -0.0034
@<TRIPOS>BOND
     1    24    25    1
     2    25    26    1
     3    25    23    1
     4    23     1    1
     5     1     2    1
     6     2     3    1
     7     3    27    1
     8    27    28    1
     9    28    29   ar
    10    29    30   ar
    11    30    31   ar
    12    31    32    1
    13    31    33   ar
    14    33    34   ar
    15     3     4    1
    16     4     8    1
    17     8     9    1
    18     9    10    1
    19    10    11    1
    20    11    14    1
    21    14    15   ar
    22    15    16   ar
    23    16    17   ar
    24    17    18    1
    25    17    19   ar
    26    11    12    1
    27    12    13    1
    28     4     5    1
    29     5     6    1
    30     6     7    1
    31     6     1    1
    32    34    28   ar
    33    13     8    1
    34    19    14   ar
    35    18    20    1
    36    18    21    1
    37    19    22    1
@<TRIPOS>MOLECULE
*****
 34 37 0 0 0
SMALL
GASTEIGER

@<TRIPOS>ATOM
      1 N         141.9400  139.5663  166.9976 N.3     1  UNL1       -0.2715
      2 C         140.7287  140.2793  166.4738 C.3     1  UNL1        0.0885
      3 C         140.3306  140.1244  165.0359 C.3     1  UNL1        0.0779
      4 N         141.1436  139.2564  164.1219 N.3     1  UNL1       -0.2724
      5 C         142.3549  138.5434  164.6457 C.3     1  UNL1        0.0882
      6 C         142.7531  138.6983  166.0836 C.3     1  UNL1        0.0736
      7 C         143.9644  137.9853  166.6074 C.3     1  UNL1        0.0188
      8 C         140.7455  139.1015  162.6840 C.3     1  UNL1        0.0610
      9 C         141.4666  139.8730  161.6188 C.3     1  UNL1        0.0375
     10 C         141.0684  139.7180  160.1810 C.3     1  UNL1        0.0950
     11 N         139.9491  138.7916  159.8083 N.pl3   1  UNL1       -0.2784
     12 C         139.2280  138.0201  160.8735 C.3     1  UNL1        0.0950
     13 C         139.6262  138.1750  162.3114 C.3     1  UNL1        0.0375
     14 C         139.5510  138.6367  158.3704 C.ar    1  UNL1        0.2194
     15 N         138.7026  139.5905  157.5828 N.ar    1  UNL1       -0.1117
     16 N         138.5586  139.0441  156.1933 N.ar    1  UNL1       -0.1121
     17 C         139.3179  137.7524  156.1222 C.ar    1  UNL1        0.2131
     18 N         139.4421  136.8678  154.9172 N.pl3   1  UNL1       -0.3277
     19 N         139.9312  137.5007  157.4678 N.ar    1  UNL1       -0.2979
     20 H         139.0007  137.1197  154.0740 H       1  UNL1        0.1451
     21 H         139.9651  136.0354  154.9695 H       1  UNL1        0.1451
     22 H         140.4860  136.7258  157.7150 H       1  UNL1        0.1713
     23 C         142.3382  139.7212  168.4355 C.3     1  UNL1        0.0721
     24 C         143.2682  142.0886  168.9653 C.3     1  UNL1        0.0014
     25 C         142.1950  141.0512  169.1142 C.3     1  UNL1        0.0160
     26 C         140.9787  141.3438  169.9420 C.3     1  UNL1        0.0014
     27 C         139.1192  140.8374  164.5121 C.3     1  UNL1        0.0437
     28 C         139.2595  142.1928  163.8851 C.ar    1  UNL1       -0.0207
     29 C         140.6183  142.8071  163.7226 C.ar    1  UNL1       -0.0034
     30 C         140.7585  144.1625  163.0955 C.ar    1  UNL1        0.0111
     31 C         139.5400  144.9037  162.6311 C.ar    1  UNL1        0.0577
     32 CL        139.6802  146.2591  162.0040 Cl      1  UNL1       -0.0822
     33 C         138.1812  144.2895  162.7936 C.ar    1  UNL1        0.0111
     34 C         138.0409  142.9341  163.4206 C.ar    1  UNL1       -0.0034
@<TRIPOS>BOND
     1    24    25    1
     2    25    26    1
     3    25    23    1
     4    23     1    1
     5     1     2    1
     6     2     3    1
     7     3    27    1
     8    27    28    1
     9    28    29   ar
    10    29    30   ar
    11    30    31   ar
    12    31    32    1
    13    31    33   ar
    14    33    34   ar
    15     3     4    1
    16     4     8    1
    17     8     9    1
    18     9    10    1
    19    10    11    1
    20    11    14    1
    21    14    15   ar
    22    15    16   ar
    23    16    17   ar
    24    17    18    1
    25    17    19   ar
    26    11    12    1
    27    12    13    1
    28     4     5    1
    29     5     6    1
    30     6     7    1
    31     6     1    1
    32    34    28   ar
    33    13     8    1
    34    19    14   ar
    35    18    20    1
    36    18    21    1
    37    19    22    1
@<TRIPOS>MOLECULE
*****
 34 37 0 0 0
SMALL
GASTEIGER

@<TRIPOS>ATOM
      1 N         139.4410  139.5059  166.1720 N.3     1  UNL1       -0.2715
      2 C         140.3463  140.5145  165.5295 C.3     1  UNL1        0.0885
      3 C         140.9230  140.2468  164.1709 C.3     1  UNL1        0.0779
      4 N         140.5943  138.9705  163.4548 N.3     1  UNL1       -0.2724
      5 C         139.6890  137.9618  164.0974 C.3     1  UNL1        0.0882
      6 C         139.1123  138.2295  165.4560 C.3     1  UNL1        0.0736
      7 C         138.2069  137.2207  166.0985 C.3     1  UNL1        0.0188
      8 C         141.1710  138.7028  162.0963 C.3     1  UNL1        0.0610
      9 C         140.4069  139.0951  160.8666 C.3     1  UNL1        0.0375
     10 C         140.9836  138.8274  159.5080 C.3     1  UNL1        0.0950
     11 N         142.3244  138.1674  159.3791 N.pl3   1  UNL1       -0.2784
     12 C         143.0885  137.7750  160.6088 C.3     1  UNL1        0.0950
     13 C         142.5118  138.0427  161.9674 C.3     1  UNL1        0.0375
     14 C         142.9011  137.8997  158.0205 C.ar    1  UNL1        0.2194
     15 N         143.6815  138.8721  157.1867 N.ar    1  UNL1       -0.1117
     16 N         144.0614  138.1860  155.9080 N.ar    1  UNL1       -0.1121
     17 C         143.5156  136.7895  155.9515 C.ar    1  UNL1        0.2131
     18 N         143.6614  135.7520  154.8780 N.pl3   1  UNL1       -0.3277
     19 N         142.7985  136.6125  157.2571 N.ar    1  UNL1       -0.2979
     20 H         144.1528  135.9643  154.0518 H       1  UNL1        0.1451
     21 H         143.2656  134.8588  154.9997 H       1  UNL1        0.1451
     22 H         142.3409  135.7951  157.5598 H       1  UNL1        0.1713
     23 C         138.8643  139.7736  167.5306 C.3     1  UNL1        0.0721
     24 C         139.2213  140.6812  169.9386 C.3     1  UNL1        0.0014
     25 C         139.7737  140.0660  168.6871 C.3     1  UNL1        0.0160
     26 C         141.2355  139.7431  168.5920 C.3     1  UNL1        0.0014
     27 C         141.8284  141.2556  163.5284 C.3     1  UNL1        0.0437
     28 C         141.2762  142.5706  163.0640 C.ar    1  UNL1       -0.0207
     29 C         141.8402  143.8526  163.6011 C.ar    1  UNL1       -0.0034
     30 C         141.2880  145.1677  163.1366 C.ar    1  UNL1        0.0111
     31 C         140.1718  145.2008  162.1351 C.ar    1  UNL1        0.0577
     32 CL        139.6197  146.5158  161.6707 Cl      1  UNL1       -0.0822
     33 C         139.6078  143.9188  161.5980 C.ar    1  UNL1        0.0111
     34 C         140.1600  142.6038  162.0624 C.ar    1  UNL1       -0.0034
@<TRIPOS>BOND
     1    24    25    1
     2    25    26    1
     3    25    23    1
     4    23     1    1
     5     1     2    1
     6     2     3    1
     7     3    27    1
     8    27    28    1
     9    28    29   ar
    10    29    30   ar
    11    30    31   ar
    12    31    32    1
    13    31    33   ar
    14    33    34   ar
    15     3     4    1
    16     4     8    1
    17     8     9    1
    18     9    10    1
    19    10    11    1
    20    11    14    1
    21    14    15   ar
    22    15    16   ar
    23    16    17   ar
    24    17    18    1
    25    17    19   ar
    26    11    12    1
    27    12    13    1
    28     4     5    1
    29     5     6    1
    30     6     7    1
    31     6     1    1
    32    34    28   ar
    33    13     8    1
    34    19    14   ar
    35    18    20    1
    36    18    21    1
    37    19    22    1
@<TRIPOS>MOLECULE
*****
 34 37 0 0 0
SMALL
GASTEIGER

@<TRIPOS>ATOM
      1 N         141.5586  140.3748  168.0660 N.3     1  UNL1       -0.2715
      2 C         140.9379  139.3163  167.2034 C.3     1  UNL1        0.0885
      3 C         141.2849  139.2375  165.7462 C.3     1  UNL1        0.0779
      4 N         142.2526  140.2172  165.1517 N.3     1  UNL1       -0.2724
      5 C         142.8734  141.2757  166.0143 C.3     1  UNL1        0.0882
      6 C         142.5263  141.3545  167.4714 C.3     1  UNL1        0.0736
      7 C         143.1471  142.4132  168.3341 C.3     1  UNL1        0.0188
      8 C         142.5997  140.1384  163.6945 C.3     1  UNL1        0.0610
      9 C         141.9684  141.0887  162.7207 C.3     1  UNL1        0.0375
     10 C         142.3154  141.0099  161.2635 C.3     1  UNL1        0.0950
     11 N         143.2937  139.9807  160.7801 N.pl3   1  UNL1       -0.2784
     12 C         143.9250  139.0304  161.7539 C.3     1  UNL1        0.0950
     13 C         143.5779  139.1092  163.2111 C.3     1  UNL1        0.0375
     14 C         143.6407  139.9019  159.3229 C.ar    1  UNL1        0.2194
     15 N         143.3939  138.7299  158.4200 N.ar    1  UNL1       -0.1117
     16 N         143.8962  139.0849  157.0518 N.ar    1  UNL1       -0.1121
     17 C         144.4533  140.4764  157.1093 C.ar    1  UNL1        0.2131
     18 N         145.0616  141.2306  155.9642 N.pl3   1  UNL1       -0.3277
     19 N         144.2955  140.9813  158.5129 N.ar    1  UNL1       -0.2979
     20 H         145.1209  140.8119  155.0751 H       1  UNL1        0.1451
     21 H         145.4015  142.1442  156.1016 H       1  UNL1        0.1451
     22 H         144.5729  141.8659  158.8443 H       1  UNL1        0.1713
     23 C         141.2116  140.4536  169.5232 C.3     1  UNL1        0.0721
     24 C         139.9067  142.5581  170.3095 C.3     1  UNL1        0.0014
     25 C         139.9291  141.1009  169.9548 C.3     1  UNL1        0.0160
     26 C         138.6689  140.2908  170.0317 C.3     1  UNL1        0.0014
     27 C         140.6641  138.1789  164.8836 C.3     1  UNL1        0.0437
     28 C         139.7711  138.5690  163.7433 C.ar    1  UNL1       -0.0207
     29 C         139.8791  137.8558  162.4281 C.ar    1  UNL1       -0.0034
     30 C         138.9860  138.2459  161.2878 C.ar    1  UNL1        0.0111
     31 C         137.9850  139.3492  161.4627 C.ar    1  UNL1        0.0577
     32 CL        137.0920  139.7393  160.3224 Cl      1  UNL1       -0.0822
     33 C         137.8770  140.0624  162.7779 C.ar    1  UNL1        0.0111
     34 C         138.7700  139.6723  163.9182 C.ar    1  UNL1       -0.0034
@<TRIPOS>BOND
     1    24    25    1
     2    25    26    1
     3    25    23    1
     4    23     1    1
     5     1     2    1
     6     2     3    1
     7     3    27    1
     8    27    28    1
     9    28    29   ar
    10    29    30   ar
    11    30    31   ar
    12    31    32    1
    13    31    33   ar
    14    33    34   ar
    15     3     4    1
    16     4     8    1
    17     8     9    1
    18     9    10    1
    19    10    11    1
    20    11    14    1
    21    14    15   ar
    22    15    16   ar
    23    16    17   ar
    24    17    18    1
    25    17    19   ar
    26    11    12    1
    27    12    13    1
    28     4     5    1
    29     5     6    1
    30     6     7    1
    31     6     1    1
    32    34    28   ar
    33    13     8    1
    34    19    14   ar
    35    18    20    1
    36    18    21    1
    37    19    22    1
@<TRIPOS>MOLECULE
*****
 34 37 0 0 0
SMALL
GASTEIGER

@<TRIPOS>ATOM
      1 N         140.7263  140.4555  168.3662 N.3     1  UNL1       -0.2715
      2 C         139.7235  140.9486  167.3656 C.3     1  UNL1        0.0885
      3 C         139.8839  140.6093  165.9133 C.3     1  UNL1        0.0779
      4 N         141.0471  139.7768  165.4617 N.3     1  UNL1       -0.2724
      5 C         142.0498  139.2837  166.4623 C.3     1  UNL1        0.0882
      6 C         141.8894  139.6230  167.9146 C.3     1  UNL1        0.0736
      7 C         142.8922  139.1298  168.9152 C.3     1  UNL1        0.0188
      8 C         141.2075  139.4375  164.0094 C.3     1  UNL1        0.0610
      9 C         142.1354  140.2429  163.1490 C.3     1  UNL1        0.0375
     10 C         142.2958  139.9036  161.6968 C.3     1  UNL1        0.0950
     11 N         141.5283  138.7589  161.1048 N.pl3   1  UNL1       -0.2784
     12 C         140.6003  137.9535  161.9651 C.3     1  UNL1        0.0950
     13 C         140.4399  138.2928  163.4174 C.3     1  UNL1        0.0375
     14 C         141.6887  138.4196  159.6525 C.ar    1  UNL1        0.2194
     15 N         140.5917  138.3782  158.6303 N.ar    1  UNL1       -0.1117
     16 N         141.1992  137.9951  157.3135 N.ar    1  UNL1       -0.1121
     17 C         142.6718  137.7997  157.5218 C.ar    1  UNL1        0.2131
     18 N         143.6671  137.4103  156.4693 N.pl3   1  UNL1       -0.3277
     19 N         142.9743  138.0620  158.9674 N.ar    1  UNL1       -0.2979
     20 H         143.3702  137.2590  155.5429 H       1  UNL1        0.1451
     21 H         144.6173  137.3061  156.7049 H       1  UNL1        0.1451
     22 H         143.8609  138.0089  159.3919 H       1  UNL1        0.1713
     23 C         140.5659  140.7948  169.8185 C.3     1  UNL1        0.0721
     24 C         142.2120  142.7403  170.3239 C.3     1  UNL1        0.0014
     25 C         140.8146  142.1957  170.2933 C.3     1  UNL1        0.0160
     26 C         139.6660  143.0521  170.7376 C.3     1  UNL1        0.0014
     27 C         138.8811  141.1025  164.9127 C.3     1  UNL1        0.0437
     28 C         139.1081  142.4040  164.2024 C.ar    1  UNL1       -0.0207
     29 C         140.3644  143.1849  164.4509 C.ar    1  UNL1       -0.0034
     30 C         140.5913  144.4865  163.7406 C.ar    1  UNL1        0.0111
     31 C         139.5619  145.0070  162.7818 C.ar    1  UNL1        0.0577
     32 CL        139.7889  146.3085  162.0715 Cl      1  UNL1       -0.0822
     33 C         138.3056  144.2261  162.5333 C.ar    1  UNL1        0.0111
     34 C         138.0786  142.9246  163.2436 C.ar    1  UNL1       -0.0034
@<TRIPOS>BOND
     1    24    25    1
     2    25    26    1
     3    25    23    1
     4    23     1    1
     5     1     2    1
     6     2     3    1
     7     3    27    1
     8    27    28    1
     9    28    29   ar
    10    29    30   ar
    11    30    31   ar
    12    31    32    1
    13    31    33   ar
    14    33    34   ar
    15     3     4    1
    16     4     8    1
    17     8     9    1
    18     9    10    1
    19    10    11    1
    20    11    14    1
    21    14    15   ar
    22    15    16   ar
    23    16    17   ar
    24    17    18    1
    25    17    19   ar
    26    11    12    1
    27    12    13    1
    28     4     5    1
    29     5     6    1
    30     6     7    1
    31     6     1    1
    32    34    28   ar
    33    13     8    1
    34    19    14   ar
    35    18    20    1
    36    18    21    1
    37    19    22    1
@<TRIPOS>MOLECULE
*****
 34 37 0 0 0
SMALL
GASTEIGER

@<TRIPOS>ATOM
      1 N         140.3132  144.0287  160.3956 N.3     1  UNL1       -0.2715
      2 C         140.8165  142.6406  160.6595 C.3     1  UNL1        0.0885
      3 C         141.1064  142.2023  162.0645 C.3     1  UNL1        0.0779
      4 N         140.8930  143.1522  163.2055 N.3     1  UNL1       -0.2724
      5 C         140.3897  144.5404  162.9417 C.3     1  UNL1        0.0882
      6 C         140.0999  144.9786  161.5367 C.3     1  UNL1        0.0736
      7 C         139.5966  146.3669  161.2728 C.3     1  UNL1        0.0188
      8 C         141.1829  142.7140  164.6105 C.3     1  UNL1        0.0610
      9 C         140.0555  142.3473  165.5295 C.3     1  UNL1        0.0375
     10 C         140.3454  141.9091  166.9344 C.3     1  UNL1        0.0950
     11 N         141.7627  141.8375  167.4204 N.pl3   1  UNL1       -0.2784
     12 C         142.8900  142.2042  166.5015 C.3     1  UNL1        0.0950
     13 C         142.6001  142.6425  165.0965 C.3     1  UNL1        0.0375
     14 C         142.0526  141.3993  168.8254 C.ar    1  UNL1        0.2194
     15 N         141.3349  141.8613  170.0589 N.ar    1  UNL1       -0.1117
     16 N         141.9498  141.1696  171.2394 N.ar    1  UNL1       -0.1121
     17 C         143.0475  140.2802  170.7355 C.ar    1  UNL1        0.2131
     18 N         143.9273  139.4028  171.5759 N.pl3   1  UNL1       -0.3277
     19 N         143.1110  140.4221  169.2435 N.ar    1  UNL1       -0.2979
     20 H         143.8081  139.3775  172.5528 H       1  UNL1        0.1451
     21 H         144.6239  138.8523  171.1505 H       1  UNL1        0.1451
     22 H         143.7374  139.9558  168.6440 H       1  UNL1        0.1713
     23 C         140.0233  144.4670  158.9907 C.3     1  UNL1        0.0721
     24 C         142.4911  144.3822  158.1827 C.3     1  UNL1        0.0014
     25 C         141.1276  145.0052  158.1300 C.3     1  UNL1        0.0160
     26 C         140.8684  146.1664  157.2165 C.3     1  UNL1        0.0014
     27 C         141.6097  140.8141  162.3284 C.3     1  UNL1        0.0437
     28 C         140.8000  139.8694  163.1663 C.ar    1  UNL1       -0.0207
     29 C         139.3239  139.7382  162.9346 C.ar    1  UNL1       -0.0034
     30 C         138.5142  138.7935  163.7726 C.ar    1  UNL1        0.0111
     31 C         139.1808  137.9801  164.8421 C.ar    1  UNL1        0.0577
     32 CL        138.3712  137.0354  165.6800 Cl      1  UNL1       -0.0822
     33 C         140.6570  138.1113  165.0738 C.ar    1  UNL1        0.0111
     34 C         141.4666  139.0559  164.2359 C.ar    1  UNL1       -0.0034
@<TRIPOS>BOND
     1    24    25    1
     2    25    26    1
     3    25    23    1
     4    23     1    1
     5     1     2    1
     6     2     3    1
     7     3    27    1
     8    27    28    1
     9    28    29   ar
    10    29    30   ar
    11    30    31   ar
    12    31    32    1
    13    31    33   ar
    14    33    34   ar
    15     3     4    1
    16     4     8    1
    17     8     9    1
    18     9    10    1
    19    10    11    1
    20    11    14    1
    21    14    15   ar
    22    15    16   ar
    23    16    17   ar
    24    17    18    1
    25    17    19   ar
    26    11    12    1
    27    12    13    1
    28     4     5    1
    29     5     6    1
    30     6     7    1
    31     6     1    1
    32    34    28   ar
    33    13     8    1
    34    19    14   ar
    35    18    20    1
    36    18    21    1
    37    19    22    1
