@<TRIPOS>MOLECULE
*****
 28 31 0 0 0
SMALL
GASTEIGER

@<TRIPOS>ATOM
      1 N         143.5781  141.6830  164.7923 N.3     1  UNL1       -0.2723
      2 C         144.7095  142.5373  164.3022 C.3     1  UNL1        0.0614
      3 C         145.7937  141.6289  163.8028 C.3     1  UNL1        0.0175
      4 C         145.3323  140.2132  163.9841 C.3     1  UNL1        0.0175
      5 C         143.9630  140.2466  164.5957 C.3     1  UNL1        0.0614
      6 C         142.6206  140.5804  165.2004 C.3     1  UNL1        0.0595
      7 C         142.3753  142.0540  165.3354 C.3     1  UNL1        0.1686
      8 C         143.4197  143.0325  164.8863 C.3     1  UNL1        0.0595
      9 C         142.2883  142.1782  165.3763 C.3     1  UNL1        0.0861
     10 C         142.1732  142.4071  166.8543 C.3     1  UNL1        0.0228
     11 C         138.2783  144.6013  162.9412 C.3     1  UNL1        0.0381
     12 C         139.2704  143.5583  163.3631 C.ar    1  UNL1        0.0073
     13 C         139.3413  142.1504  162.8505 C.ar    1  UNL1        0.0024
     14 C         140.4804  141.4621  163.5423 C.ar    1  UNL1        0.0037
     15 C         141.1136  142.4445  164.4824 C.ar    1  UNL1        0.0214
     16 S         140.3657  143.7401  164.3717 S.2     1  UNL1       -0.0943
     17 O         141.0854  142.5492  165.9195 O.3     1  UNL1       -0.4791
     18 C         140.4946  141.8681  167.1183 C.ar    1  UNL1        0.1385
     19 C         139.8227  140.5354  166.9684 C.ar    1  UNL1        0.0369
     20 C         139.2319  139.8544  168.1671 C.ar    1  UNL1        0.0033
     21 C         139.3130  140.5059  169.5158 C.ar    1  UNL1        0.0047
     22 C         139.9849  141.8386  169.6656 C.ar    1  UNL1        0.0561
     23 C         140.5757  142.5197  168.4668 C.ar    1  UNL1        0.0414
     24 C         140.0660  142.4902  171.0143 C.2     1  UNL1        0.2428
     25 N         138.9680  143.4032  171.4734 N.am    1  UNL1       -0.3253
     26 O         141.2452  142.2287  171.9039 O.2     1  UNL1       -0.2704
     27 H         138.1941  143.5749  170.8896 H       1  UNL1        0.1453
     28 H         139.0213  143.8309  172.3586 H       1  UNL1        0.1453
@<TRIPOS>BOND
     1    11    12    1
     2    12    13   ar
     3    13    14   ar
     4    14    15   ar
     5    15     9    1
     6     9    10    1
     7     9     1    1
     8     1     2    1
     9     2     3    1
    10     3     4    1
    11     5     4    1
    12     5     6    1
    13     6     7    1
    14     7    17    1
    15    17    18    1
    16    18    19   ar
    17    19    20   ar
    18    20    21   ar
    19    21    22   ar
    20    22    24    1
    21    24    25   am
    22    24    26    2
    23    22    23   ar
    24     7     8    1
    25    15    16   ar
    26    16    12   ar
    27     5     1    1
    28    23    18   ar
    29     8     2    1
    30    25    27    1
    31    25    28    1
@<TRIPOS>MOLECULE
*****
 28 31 0 0 0
SMALL
GASTEIGER

@<TRIPOS>ATOM
      1 N         143.0776  141.2530  164.1174 N.3     1  UNL1       -0.2723
      2 C         143.4450  140.6373  162.7999 C.3     1  UNL1        0.0614
      3 C         144.9315  140.7503  162.6337 C.3     1  UNL1        0.0175
      4 C         145.4828  141.4359  163.8486 C.3     1  UNL1        0.0175
      5 C         144.3371  141.7466  164.7656 C.3     1  UNL1        0.0614
      6 C         143.0162  141.9287  165.4735 C.3     1  UNL1        0.0595
      7 C         141.8467  141.3869  164.7060 C.3     1  UNL1        0.1686
      8 C         142.0612  140.7412  163.3692 C.3     1  UNL1        0.0595
      9 C         141.6938  141.3569  164.6868 C.3     1  UNL1        0.0861
     10 C         141.1690  140.2758  165.5845 C.3     1  UNL1        0.0228
     11 C         137.6034  144.3238  163.1547 C.3     1  UNL1        0.0381
     12 C         138.9546  143.9056  163.6541 C.ar    1  UNL1        0.0073
     13 C         140.0709  144.8251  164.0519 C.ar    1  UNL1        0.0024
     14 C         141.2329  143.9823  164.4872 C.ar    1  UNL1        0.0037
     15 C         140.8347  142.5419  164.3584 C.ar    1  UNL1        0.0214
     16 S         139.4266  142.4945  163.8435 S.2     1  UNL1       -0.0943
     17 O         140.4629  141.4908  165.2755 O.3     1  UNL1       -0.4791
     18 C         140.2551  141.4194  166.7593 C.ar    1  UNL1        0.1385
     19 C         139.6116  140.2094  167.3692 C.ar    1  UNL1        0.0369
     20 C         139.4039  140.1380  168.8529 C.ar    1  UNL1        0.0033
     21 C         139.8397  141.2765  169.7269 C.ar    1  UNL1        0.0047
     22 C         140.4832  142.4865  169.1171 C.ar    1  UNL1        0.0561
     23 C         140.6909  142.5579  167.6332 C.ar    1  UNL1        0.0414
     24 C         140.9189  143.6250  169.9911 C.2     1  UNL1        0.2428
     25 N         139.9930  144.7794  170.2361 N.am    1  UNL1       -0.3253
     26 O         142.2807  143.6091  170.6200 O.2     1  UNL1       -0.2704
     27 H         139.0993  144.7898  169.8234 H       1  UNL1        0.1453
     28 H         140.2790  145.5266  170.8098 H       1  UNL1        0.1453
@<TRIPOS>BOND
     1    11    12    1
     2    12    13   ar
     3    13    14   ar
     4    14    15   ar
     5    15     9    1
     6     9    10    1
     7     9     1    1
     8     1     2    1
     9     2     3    1
    10     3     4    1
    11     5     4    1
    12     5     6    1
    13     6     7    1
    14     7    17    1
    15    17    18    1
    16    18    19   ar
    17    19    20   ar
    18    20    21   ar
    19    21    22   ar
    20    22    24    1
    21    24    25   am
    22    24    26    2
    23    22    23   ar
    24     7     8    1
    25    15    16   ar
    26    16    12   ar
    27     5     1    1
    28    23    18   ar
    29     8     2    1
    30    25    27    1
    31    25    28    1
@<TRIPOS>MOLECULE
*****
 28 31 0 0 0
SMALL
GASTEIGER

@<TRIPOS>ATOM
      1 N         140.9870  143.5509  163.7012 N.3     1  UNL1       -0.2723
      2 C         141.5599  143.5026  162.3157 C.3     1  UNL1        0.0614
      3 C         141.1010  144.7274  161.5814 C.3     1  UNL1        0.0175
      4 C         140.2446  145.5327  162.5130 C.3     1  UNL1        0.0175
      5 C         140.1741  144.8056  163.8231 C.3     1  UNL1        0.0614
      6 C         140.2806  143.8713  165.0041 C.3     1  UNL1        0.0595
      7 C         141.1244  142.6607  164.7347 C.3     1  UNL1        0.1686
      8 C         141.7641  142.4764  163.3905 C.3     1  UNL1        0.0595
      9 C         141.1912  142.5247  164.7760 C.3     1  UNL1        0.0861
     10 C         142.3545  142.6438  165.7154 C.3     1  UNL1        0.0228
     11 C         139.2027  137.6377  164.9852 C.3     1  UNL1        0.0381
     12 C         139.3181  139.1330  165.0075 C.ar    1  UNL1        0.0073
     13 C         138.1942  140.1007  165.2317 C.ar    1  UNL1        0.0024
     14 C         138.7590  141.4891  165.1723 C.ar    1  UNL1        0.0037
     15 C         140.2321  141.3794  164.9113 C.ar    1  UNL1        0.0214
     16 S         140.5776  139.9232  164.8095 S.2     1  UNL1       -0.0943
     17 O         141.3286  141.6345  165.8096 O.3     1  UNL1       -0.4791
     18 C         141.7045  142.0655  167.1963 C.ar    1  UNL1        0.1385
     19 C         143.0999  141.8413  167.6990 C.ar    1  UNL1        0.0369
     20 C         143.4758  142.2723  169.0856 C.ar    1  UNL1        0.0033
     21 C         142.4564  142.9274  169.9696 C.ar    1  UNL1        0.0047
     22 C         141.0610  143.1516  169.4670 C.ar    1  UNL1        0.0561
     23 C         140.6851  142.7206  168.0802 C.ar    1  UNL1        0.0414
     24 C         140.0416  143.8067  170.3510 C.2     1  UNL1        0.2428
     25 N         139.1577  142.9681  171.2259 N.am    1  UNL1       -0.3253
     26 O         139.9060  145.3006  170.3602 O.2     1  UNL1       -0.2704
     27 H         139.2466  141.9876  171.2198 H       1  UNL1        0.1453
     28 H         138.4886  143.3981  171.8061 H       1  UNL1        0.1453
@<TRIPOS>BOND
     1    11    12    1
     2    12    13   ar
     3    13    14   ar
     4    14    15   ar
     5    15     9    1
     6     9    10    1
     7     9     1    1
     8     1     2    1
     9     2     3    1
    10     3     4    1
    11     5     4    1
    12     5     6    1
    13     6     7    1
    14     7    17    1
    15    17    18    1
    16    18    19   ar
    17    19    20   ar
    18    20    21   ar
    19    21    22   ar
    20    22    24    1
    21    24    25   am
    22    24    26    2
    23    22    23   ar
    24     7     8    1
    25    15    16   ar
    26    16    12   ar
    27     5     1    1
    28    23    18   ar
    29     8     2    1
    30    25    27    1
    31    25    28    1
@<TRIPOS>MOLECULE
*****
 28 31 0 0 0
SMALL
GASTEIGER

@<TRIPOS>ATOM
      1 N         139.1857  139.1248  163.6879 N.3     1  UNL1       -0.2723
      2 C         138.7972  137.8823  162.9427 C.3     1  UNL1        0.0614
      3 C         137.9199  138.2854  161.7947 C.3     1  UNL1        0.0175
      4 C         137.7662  139.7771  161.8304 C.3     1  UNL1        0.0175
      5 C         138.5485  140.2959  163.0004 C.3     1  UNL1        0.0614
      6 C         139.4034  140.5267  164.2231 C.3     1  UNL1        0.0595
      7 C         139.9728  139.2652  164.8015 C.3     1  UNL1        0.1686
      8 C         139.6696  137.9430  164.1613 C.3     1  UNL1        0.0595
      9 C         140.0582  139.1855  164.9065 C.3     1  UNL1        0.0861
     10 C         139.4392  139.1846  166.2729 C.3     1  UNL1        0.0228
     11 C         144.8896  140.5315  163.2553 C.3     1  UNL1        0.0381
     12 C         143.7704  139.8659  163.9997 C.ar    1  UNL1        0.0073
     13 C         143.9190  138.8183  165.0630 C.ar    1  UNL1        0.0024
     14 C         142.5465  138.4360  165.5320 C.ar    1  UNL1        0.0037
     15 C         141.5496  139.2472  164.7587 C.ar    1  UNL1        0.0214
     16 S         142.3060  140.1310  163.8117 S.2     1  UNL1       -0.0943
     17 O         140.8453  139.3260  166.0202 O.3     1  UNL1       -0.4791
     18 C         140.6687  140.4352  167.0144 C.ar    1  UNL1        0.1385
     19 C         140.5929  141.8579  166.5453 C.ar    1  UNL1        0.0369
     20 C         140.4164  142.9671  167.5395 C.ar    1  UNL1        0.0033
     21 C         140.3155  142.6536  169.0029 C.ar    1  UNL1        0.0047
     22 C         140.3913  141.2309  169.4720 C.ar    1  UNL1        0.0561
     23 C         140.5679  140.1217  168.4778 C.ar    1  UNL1        0.0414
     24 C         140.2905  140.9174  170.9354 C.2     1  UNL1        0.2428
     25 N         139.9507  139.5266  171.3828 N.am    1  UNL1       -0.3253
     26 O         140.5295  141.9948  171.9515 O.2     1  UNL1       -0.2704
     27 H         139.7938  138.8195  170.7160 H       1  UNL1        0.1453
     28 H         139.8845  139.3208  172.3433 H       1  UNL1        0.1453
@<TRIPOS>BOND
     1    11    12    1
     2    12    13   ar
     3    13    14   ar
     4    14    15   ar
     5    15     9    1
     6     9    10    1
     7     9     1    1
     8     1     2    1
     9     2     3    1
    10     3     4    1
    11     5     4    1
    12     5     6    1
    13     6     7    1
    14     7    17    1
    15    17    18    1
    16    18    19   ar
    17    19    20   ar
    18    20    21   ar
    19    21    22   ar
    20    22    24    1
    21    24    25   am
    22    24    26    2
    23    22    23   ar
    24     7     8    1
    25    15    16   ar
    26    16    12   ar
    27     5     1    1
    28    23    18   ar
    29     8     2    1
    30    25    27    1
    31    25    28    1
@<TRIPOS>MOLECULE
*****
 28 31 0 0 0
SMALL
GASTEIGER

@<TRIPOS>ATOM
      1 N         140.0965  139.5300  164.9671 N.3     1  UNL1       -0.2723
      2 C         140.2588  138.7286  163.7095 C.3     1  UNL1        0.0614
      3 C         139.3569  137.5336  163.8016 C.3     1  UNL1        0.0175
      4 C         138.6373  137.5963  165.1162 C.3     1  UNL1        0.0175
      5 C         139.0944  138.8301  165.8365 C.3     1  UNL1        0.0614
      6 C         139.7268  140.1142  166.3166 C.3     1  UNL1        0.0595
      7 C         140.7073  140.6983  165.3432 C.3     1  UNL1        0.1686
      8 C         140.9733  140.0055  164.0396 C.3     1  UNL1        0.0595
      9 C         140.8110  140.8069  165.2972 C.3     1  UNL1        0.0861
     10 C         142.0487  140.7764  166.1442 C.3     1  UNL1        0.0228
     11 C         140.5022  145.4844  162.8670 C.3     1  UNL1        0.0381
     12 C         140.1459  144.2643  163.6634 C.ar    1  UNL1        0.0073
     13 C         138.8195  143.9879  164.3070 C.ar    1  UNL1        0.0024
     14 C         138.9072  142.6591  164.9974 C.ar    1  UNL1        0.0037
     15 C         140.2878  142.1142  164.7805 C.ar    1  UNL1        0.0214
     16 S         141.0534  143.1063  163.9559 S.2     1  UNL1       -0.0943
     17 O         141.4217  141.9753  165.6734 O.3     1  UNL1       -0.4791
     18 C         141.7592  142.2989  167.0987 C.ar    1  UNL1        0.1385
     19 C         143.1441  142.0478  167.6172 C.ar    1  UNL1        0.0369
     20 C         143.4815  142.3714  169.0424 C.ar    1  UNL1        0.0033
     21 C         142.4340  142.9461  169.9492 C.ar    1  UNL1        0.0047
     22 C         141.0490  143.1973  169.4307 C.ar    1  UNL1        0.0561
     23 C         140.7116  142.8737  168.0054 C.ar    1  UNL1        0.0414
     24 C         140.0015  143.7721  170.3376 C.2     1  UNL1        0.2428
     25 N         139.0793  142.8600  171.0910 N.am    1  UNL1       -0.3253
     26 O         139.8762  145.2590  170.4909 O.2     1  UNL1       -0.2704
     27 H         139.1616  141.8841  170.9904 H       1  UNL1        0.1453
     28 H         138.3918  143.2372  171.6862 H       1  UNL1        0.1453
@<TRIPOS>BOND
     1    11    12    1
     2    12    13   ar
     3    13    14   ar
     4    14    15   ar
     5    15     9    1
     6     9    10    1
     7     9     1    1
     8     1     2    1
     9     2     3    1
    10     3     4    1
    11     5     4    1
    12     5     6    1
    13     6     7    1
    14     7    17    1
    15    17    18    1
    16    18    19   ar
    17    19    20   ar
    18    20    21   ar
    19    21    22   ar
    20    22    24    1
    21    24    25   am
    22    24    26    2
    23    22    23   ar
    24     7     8    1
    25    15    16   ar
    26    16    12   ar
    27     5     1    1
    28    23    18   ar
    29     8     2    1
    30    25    27    1
    31    25    28    1
@<TRIPOS>MOLECULE
*****
 28 31 0 0 0
SMALL
GASTEIGER

@<TRIPOS>ATOM
      1 N         141.8594  142.3611  167.7665 N.3     1  UNL1       -0.2723
      2 C         143.2148  142.1443  168.3714 C.3     1  UNL1        0.0614
      3 C         143.1549  142.5708  169.8082 C.3     1  UNL1        0.0175
      4 C         141.7624  143.0512  170.0913 C.3     1  UNL1        0.0175
      5 C         140.9618  142.9217  168.8295 C.3     1  UNL1        0.0614
      6 C         140.4137  142.6841  167.4431 C.3     1  UNL1        0.0595
      7 C         141.4249  142.1218  166.4884 C.3     1  UNL1        0.1686
      8 C         142.8255  141.8519  166.9526 C.3     1  UNL1        0.0595
      9 C         141.4701  142.0688  166.3477 C.3     1  UNL1        0.0861
     10 C         141.5978  143.1347  165.3001 C.3     1  UNL1        0.0228
     11 C         141.0050  137.3151  164.0967 C.3     1  UNL1        0.0381
     12 C         140.7393  138.5255  164.9419 C.ar    1  UNL1        0.0073
     13 C         139.5755  138.7151  165.8690 C.ar    1  UNL1        0.0024
     14 C         139.7076  140.0656  166.5085 C.ar    1  UNL1        0.0037
     15 C         140.9531  140.7105  165.9766 C.ar    1  UNL1        0.0214
     16 S         141.5907  139.7586  165.0083 S.2     1  UNL1       -0.0943
     17 O         141.0355  141.8295  165.0696 O.3     1  UNL1       -0.4791
     18 C         140.0788  142.7354  164.3526 C.ar    1  UNL1        0.1385
     19 C         138.6144  142.6844  164.6730 C.ar    1  UNL1        0.0369
     20 C         137.6578  143.5903  163.9560 C.ar    1  UNL1        0.0033
     21 C         138.1656  144.5473  162.9186 C.ar    1  UNL1        0.0047
     22 C         139.6301  144.5983  162.5982 C.ar    1  UNL1        0.0561
     23 C         140.5867  143.6924  163.3152 C.ar    1  UNL1        0.0414
     24 C         140.1379  145.5553  161.5608 C.2     1  UNL1        0.2428
     25 N         141.5371  145.4209  161.0373 N.am    1  UNL1       -0.3253
     26 O         139.2464  146.6468  161.0468 O.2     1  UNL1       -0.2704
     27 H         142.1222  144.7046  161.3746 H       1  UNL1        0.1453
     28 H         141.8704  146.0490  160.3564 H       1  UNL1        0.1453
@<TRIPOS>BOND
     1    11    12    1
     2    12    13   ar
     3    13    14   ar
     4    14    15   ar
     5    15     9    1
     6     9    10    1
     7     9     1    1
     8     1     2    1
     9     2     3    1
    10     3     4    1
    11     5     4    1
    12     5     6    1
    13     6     7    1
    14     7    17    1
    15    17    18    1
    16    18    19   ar
    17    19    20   ar
    18    20    21   ar
    19    21    22   ar
    20    22    24    1
    21    24    25   am
    22    24    26    2
    23    22    23   ar
    24     7     8    1
    25    15    16   ar
    26    16    12   ar
    27     5     1    1
    28    23    18   ar
    29     8     2    1
    30    25    27    1
    31    25    28    1
@<TRIPOS>MOLECULE
*****
 28 31 0 0 0
SMALL
GASTEIGER

@<TRIPOS>ATOM
      1 N         139.2015  142.3354  163.7698 N.3     1  UNL1       -0.2723
      2 C         138.7459  141.8528  162.4246 C.3     1  UNL1        0.0614
      3 C         138.0756  142.9972  161.7240 C.3     1  UNL1        0.0175
      4 C         138.1168  144.1872  162.6362 C.3     1  UNL1        0.0175
      5 C         138.8127  143.7782  163.9006 C.3     1  UNL1        0.0614
      6 C         139.5356  143.0972  165.0375 C.3     1  UNL1        0.0595
      7 C         139.8590  141.6582  164.7640 C.3     1  UNL1        0.1686
      8 C         139.4642  141.0360  163.4576 C.3     1  UNL1        0.0595
      9 C         139.9197  141.5187  164.8028 C.3     1  UNL1        0.0861
     10 C         139.1422  140.8093  165.8716 C.3     1  UNL1        0.0228
     11 C         144.8069  139.5413  164.5093 C.3     1  UNL1        0.0381
     12 C         143.6618  140.5023  164.6320 C.ar    1  UNL1        0.0073
     13 C         143.7724  141.9897  164.7915 C.ar    1  UNL1        0.0024
     14 C         142.3841  142.5515  164.8749 C.ar    1  UNL1        0.0037
     15 C         141.4154  141.4113  164.7669 C.ar    1  UNL1        0.0214
     16 S         142.2051  140.1448  164.6168 S.2     1  UNL1       -0.0943
     17 O         140.5772  140.8415  165.7971 O.3     1  UNL1       -0.4791
     18 C         140.2755  141.0401  167.2530 C.ar    1  UNL1        0.1385
     19 C         139.5033  139.9990  168.0077 C.ar    1  UNL1        0.0369
     20 C         139.2016  140.1976  169.4635 C.ar    1  UNL1        0.0033
     21 C         139.6720  141.4374  170.1646 C.ar    1  UNL1        0.0047
     22 C         140.4442  142.4786  169.4099 C.ar    1  UNL1        0.0561
     23 C         140.7459  142.2799  167.9540 C.ar    1  UNL1        0.0414
     24 C         140.9146  143.7184  170.1110 C.2     1  UNL1        0.2428
     25 N         139.9844  144.8830  170.2803 N.am    1  UNL1       -0.3253
     26 O         142.3152  143.7937  170.6427 O.2     1  UNL1       -0.2704
     27 H         139.0652  144.8336  169.9313 H       1  UNL1        0.1453
     28 H         140.2932  145.6967  170.7405 H       1  UNL1        0.1453
@<TRIPOS>BOND
     1    11    12    1
     2    12    13   ar
     3    13    14   ar
     4    14    15   ar
     5    15     9    1
     6     9    10    1
     7     9     1    1
     8     1     2    1
     9     2     3    1
    10     3     4    1
    11     5     4    1
    12     5     6    1
    13     6     7    1
    14     7    17    1
    15    17    18    1
    16    18    19   ar
    17    19    20   ar
    18    20    21   ar
    19    21    22   ar
    20    22    24    1
    21    24    25   am
    22    24    26    2
    23    22    23   ar
    24     7     8    1
    25    15    16   ar
    26    16    12   ar
    27     5     1    1
    28    23    18   ar
    29     8     2    1
    30    25    27    1
    31    25    28    1
@<TRIPOS>MOLECULE
*****
 28 31 0 0 0
SMALL
GASTEIGER

@<TRIPOS>ATOM
      1 N         141.8727  143.2916  164.6990 N.3     1  UNL1       -0.2723
      2 C         141.2307  144.3765  163.8860 C.3     1  UNL1        0.0614
      3 C         142.3049  145.3314  163.4567 C.3     1  UNL1        0.0175
      4 C         143.6108  144.8367  164.0043 C.3     1  UNL1        0.0175
      5 C         143.3437  143.5760  164.7721 C.3     1  UNL1        0.0614
      6 C         142.7875  142.3549  165.4638 C.3     1  UNL1        0.0595
      7 C         141.3039  142.2009  165.3043 C.3     1  UNL1        0.1686
      8 C         140.5256  143.2118  164.5154 C.3     1  UNL1        0.0595
      9 C         141.1676  142.1269  165.3283 C.3     1  UNL1        0.0861
     10 C         140.7075  142.2096  166.7536 C.3     1  UNL1        0.0228
     11 C         138.7998  137.9241  163.1808 C.3     1  UNL1        0.0381
     12 C         139.8341  138.9475  163.5452 C.ar    1  UNL1        0.0073
     13 C         141.2564  138.9716  163.0695 C.ar    1  UNL1        0.0024
     14 C         141.9291  140.1655  163.6796 C.ar    1  UNL1        0.0037
     15 C         140.9225  140.8794  164.5323 C.ar    1  UNL1        0.0214
     16 S         139.6276  140.1266  164.4493 S.2     1  UNL1       -0.0943
     17 O         140.5988  141.0361  165.9336 O.3     1  UNL1       -0.4791
     18 C         141.1604  140.3981  167.1696 C.ar    1  UNL1        0.1385
     19 C         142.4071  139.5683  167.0849 C.ar    1  UNL1        0.0369
     20 C         142.9687  138.9303  168.3208 C.ar    1  UNL1        0.0033
     21 C         142.2837  139.1221  169.6413 C.ar    1  UNL1        0.0047
     22 C         141.0369  139.9518  169.7260 C.ar    1  UNL1        0.0561
     23 C         140.4753  140.5898  168.4901 C.ar    1  UNL1        0.0414
     24 C         140.3519  140.1435  171.0466 C.2     1  UNL1        0.2428
     25 N         139.5312  139.0337  171.6339 N.am    1  UNL1       -0.3253
     26 O         140.4875  141.4451  171.7799 O.2     1  UNL1       -0.2704
     27 H         139.4422  138.1795  171.1526 H       1  UNL1        0.1453
     28 H         139.0815  139.1596  172.5006 H       1  UNL1        0.1453
@<TRIPOS>BOND
     1    11    12    1
     2    12    13   ar
     3    13    14   ar
     4    14    15   ar
     5    15     9    1
     6     9    10    1
     7     9     1    1
     8     1     2    1
     9     2     3    1
    10     3     4    1
    11     5     4    1
    12     5     6    1
    13     6     7    1
    14     7    17    1
    15    17    18    1
    16    18    19   ar
    17    19    20   ar
    18    20    21   ar
    19    21    22   ar
    20    22    24    1
    21    24    25   am
    22    24    26    2
    23    22    23   ar
    24     7     8    1
    25    15    16   ar
    26    16    12   ar
    27     5     1    1
    28    23    18   ar
    29     8     2    1
    30    25    27    1
    31    25    28    1
@<TRIPOS>MOLECULE
*****
 28 31 0 0 0
SMALL
GASTEIGER

@<TRIPOS>ATOM
      1 N         139.6113  142.5236  164.4389 N.3     1  UNL1       -0.2723
      2 C         138.8749  142.2194  163.1680 C.3     1  UNL1        0.0614
      3 C         137.7591  143.2123  163.0297 C.3     1  UNL1        0.0175
      4 C         137.8059  144.1301  164.2152 C.3     1  UNL1        0.0175
      5 C         138.9506  143.7045  165.0861 C.3     1  UNL1        0.0614
      6 C         140.1443  143.0634  165.7518 C.3     1  UNL1        0.0595
      7 C         140.6980  141.8956  164.9904 C.3     1  UNL1        0.1686
      8 C         140.0633  141.4736  163.6985 C.3     1  UNL1        0.0595
      9 C         140.7997  141.7778  164.9694 C.3     1  UNL1        0.0861
     10 C         140.6018  140.5947  165.8701 C.3     1  UNL1        0.0228
     11 C         145.8485  141.6913  163.4257 C.3     1  UNL1        0.0381
     12 C         144.5067  142.1752  163.8896 C.ar    1  UNL1        0.0073
     13 C         144.1318  143.6004  164.1694 C.ar    1  UNL1        0.0024
     14 C         142.6976  143.6250  164.6079 C.ar    1  UNL1        0.0037
     15 C         142.1859  142.2150  164.5992 C.ar    1  UNL1        0.0214
     16 S         143.3041  141.3190  164.1553 S.2     1  UNL1       -0.0943
     17 O         141.8865  141.1498  165.5210 O.3     1  UNL1       -0.4791
     18 C         142.0838  141.0090  167.0013 C.ar    1  UNL1        0.1385
     19 C         142.2954  139.6518  167.6040 C.ar    1  UNL1        0.0369
     20 C         142.4928  139.5110  169.0842 C.ar    1  UNL1        0.0033
     21 C         142.4786  140.7274  169.9618 C.ar    1  UNL1        0.0047
     22 C         142.2670  142.0845  169.3591 C.ar    1  UNL1        0.0561
     23 C         142.0696  142.2253  167.8788 C.ar    1  UNL1        0.0414
     24 C         142.2527  143.3009  170.2367 C.2     1  UNL1        0.2428
     25 N         143.4636  143.6542  171.0486 N.am    1  UNL1       -0.3253
     26 O         141.0276  144.1641  170.3025 O.2     1  UNL1       -0.2704
     27 H         144.2676  143.0878  171.0054 H       1  UNL1        0.1453
     28 H         143.4542  144.4526  171.6246 H       1  UNL1        0.1453
@<TRIPOS>BOND
     1    11    12    1
     2    12    13   ar
     3    13    14   ar
     4    14    15   ar
     5    15     9    1
     6     9    10    1
     7     9     1    1
     8     1     2    1
     9     2     3    1
    10     3     4    1
    11     5     4    1
    12     5     6    1
    13     6     7    1
    14     7    17    1
    15    17    18    1
    16    18    19   ar
    17    19    20   ar
    18    20    21   ar
    19    21    22   ar
    20    22    24    1
    21    24    25   am
    22    24    26    2
    23    22    23   ar
    24     7     8    1
    25    15    16   ar
    26    16    12   ar
    27     5     1    1
    28    23    18   ar
    29     8     2    1
    30    25    27    1
    31    25    28    1
