@<TRIPOS>MOLECULE
*****
 35 38 0 0 0
SMALL
GASTEIGER

@<TRIPOS>ATOM
      1 N         141.4189  139.1588  161.7468 N.3     1  UNL1       -0.2673
      2 C         142.6355  140.0192  161.9190 C.3     1  UNL1        0.1035
      3 C         142.5823  141.4741  161.5580 C.3     1  UNL1        0.1470
      4 C         142.5292  142.9291  161.1971 C.3     1  UNL1        0.1036
      5 N         141.2595  143.5237  160.6640 N.3     1  UNL1       -0.2653
      6 C         140.0428  142.6633  160.4919 C.3     1  UNL1        0.1036
      7 C         140.0960  141.2084  160.8528 C.3     1  UNL1        0.1470
      8 C         140.1491  139.7535  161.2137 C.3     1  UNL1        0.1035
      9 O         141.3126  142.0687  161.0250 O.3     1  UNL1       -0.3530
     10 C         141.4720  137.7038  162.1077 C.3     1  UNL1        0.0916
     11 C         141.2932  137.2781  163.5349 C.3     1  UNL1        0.1131
     12 C         138.8094  137.6700  164.1886 C.3     1  UNL1        0.1149
     13 N         140.2676  137.9537  164.3962 N.3     1  UNL1       -0.1526
     14 S         140.7003  138.9129  165.4652 S.O2    1  UNL1        0.0634
     15 O         142.1230  138.4736  165.2834 O.2     1  UNL1       -0.1528
     16 O         139.2776  139.3522  165.6469 O.2     1  UNL1       -0.1528
     17 C         141.1330  139.8721  166.5341 C.ar    1  UNL1        0.1222
     18 C         140.2074  140.1984  167.6685 C.ar    1  UNL1        0.0206
     19 C         140.6401  141.1576  168.7374 C.ar    1  UNL1        0.0116
     20 C         141.9984  141.7906  168.6720 C.ar    1  UNL1        0.0685
     21 C         142.9241  141.4644  167.5376 C.ar    1  UNL1        0.0116
     22 C         142.4914  140.5051  166.4687 C.ar    1  UNL1        0.0206
     23 C         142.4311  142.7498  169.7410 C.1     1  UNL1        0.1004
     24 N         142.8638  143.7090  170.8099 N.1     1  UNL1       -0.1908
     25 C         141.2063  144.9786  160.3031 C.3     1  UNL1        0.1202
     26 C         140.0439  145.8186  160.7430 C.3     1  UNL1        0.2229
     27 O         139.8939  146.1939  162.1875 O.3     1  UNL1       -0.4694
     28 C         139.8468  145.1253  163.2390 C.ar    1  UNL1        0.1930
     29 C         138.5538  144.4282  163.5427 C.ar    1  UNL1        0.1761
     30 F         137.3078  144.7998  162.7948 F       1  UNL1       -0.2009
     31 C         138.5068  143.3596  164.5943 C.ar    1  UNL1        0.0329
     32 C         139.7528  142.9880  165.3422 C.ar    1  UNL1        0.0048
     33 C         141.0458  143.6851  165.0385 C.ar    1  UNL1        0.0329
     34 C         141.0929  144.7537  163.9870 C.ar    1  UNL1        0.1761
     35 F         142.3859  145.4507  163.6833 F       1  UNL1       -0.2009
@<TRIPOS>BOND
     1    12    13    1
     2    13    11    1
     3    11    10    1
     4    10     1    1
     5     1     2    1
     6     2     3    1
     7     3     4    1
     8     4     5    1
     9     5    25    1
    10    25    26    1
    11    26    27    1
    12    27    28    1
    13    28    29   ar
    14    29    30    1
    15    29    31   ar
    16    31    32   ar
    17    32    33   ar
    18    33    34   ar
    19    34    35    1
    20     5     6    1
    21     6     7    1
    22     7     8    1
    23     7     9    1
    24    13    14    1
    25    14    15    2
    26    14    16    2
    27    14    17    1
    28    17    18   ar
    29    18    19   ar
    30    19    20   ar
    31    20    23    1
    32    23    24    3
    33    20    21   ar
    34    21    22   ar
    35     8     1    1
    36    22    17   ar
    37     9     3    1
    38    34    28   ar
@<TRIPOS>MOLECULE
*****
 35 38 0 0 0
SMALL
GASTEIGER

@<TRIPOS>ATOM
      1 N         144.2839  141.4621  163.4421 N.3     1  UNL1       -0.2673
      2 C         144.1723  142.6469  164.3552 C.3     1  UNL1        0.1035
      3 C         143.2615  143.7845  163.9998 C.3     1  UNL1        0.1470
      4 C         142.3507  144.9222  163.6444 C.3     1  UNL1        0.1036
      5 N         141.5516  144.8750  162.3759 N.3     1  UNL1       -0.2653
      6 C         141.6632  143.6901  161.4628 C.3     1  UNL1        0.1036
      7 C         142.5739  142.5525  161.8182 C.3     1  UNL1        0.1470
      8 C         143.4847  141.4149  162.1736 C.3     1  UNL1        0.1035
      9 O         142.4624  143.7373  162.7313 O.3     1  UNL1       -0.3530
     10 C         145.1947  140.3244  163.7974 C.3     1  UNL1        0.0916
     11 C         144.6428  139.1054  164.4751 C.3     1  UNL1        0.1131
     12 C         142.3613  138.0982  163.7465 C.3     1  UNL1        0.1149
     13 N         143.1627  138.9630  164.6738 N.3     1  UNL1       -0.1526
     14 S         142.4842  139.6855  165.7997 S.O2    1  UNL1        0.0634
     15 O         143.4151  139.0338  166.7788 O.2     1  UNL1       -0.1528
     16 O         141.5533  140.3372  164.8205 O.2     1  UNL1       -0.1528
     17 C         141.8057  140.4079  166.9256 C.ar    1  UNL1        0.1222
     18 C         142.4579  141.6063  167.5488 C.ar    1  UNL1        0.0206
     19 C         141.7793  142.3288  168.6747 C.ar    1  UNL1        0.0116
     20 C         140.4487  141.8528  169.1774 C.ar    1  UNL1        0.0685
     21 C         139.7964  140.6544  168.5541 C.ar    1  UNL1        0.0116
     22 C         140.4750  139.9319  167.4282 C.ar    1  UNL1        0.0206
     23 C         139.7701  142.5753  170.3033 C.1     1  UNL1        0.1004
     24 N         139.0916  143.2977  171.4292 N.1     1  UNL1       -0.1908
     25 C         140.6408  146.0126  162.0205 C.3     1  UNL1        0.1202
     26 C         139.2898  145.7356  161.4303 C.3     1  UNL1        0.2229
     27 O         138.1649  145.2815  162.3124 O.3     1  UNL1       -0.4694
     28 C         138.1900  143.9068  162.9121 C.ar    1  UNL1        0.1930
     29 C         138.0215  142.7024  162.0341 C.ar    1  UNL1        0.1761
     30 F         137.8279  142.8726  160.5564 F       1  UNL1       -0.2009
     31 C         138.0467  141.3276  162.6338 C.ar    1  UNL1        0.0329
     32 C         138.2403  141.1574  164.1115 C.ar    1  UNL1        0.0048
     33 C         138.4087  142.3619  164.9895 C.ar    1  UNL1        0.0329
     34 C         138.3836  143.7366  164.3898 C.ar    1  UNL1        0.1761
     35 F         138.5521  144.9410  165.2678 F       1  UNL1       -0.2009
@<TRIPOS>BOND
     1    12    13    1
     2    13    11    1
     3    11    10    1
     4    10     1    1
     5     1     2    1
     6     2     3    1
     7     3     4    1
     8     4     5    1
     9     5    25    1
    10    25    26    1
    11    26    27    1
    12    27    28    1
    13    28    29   ar
    14    29    30    1
    15    29    31   ar
    16    31    32   ar
    17    32    33   ar
    18    33    34   ar
    19    34    35    1
    20     5     6    1
    21     6     7    1
    22     7     8    1
    23     7     9    1
    24    13    14    1
    25    14    15    2
    26    14    16    2
    27    14    17    1
    28    17    18   ar
    29    18    19   ar
    30    19    20   ar
    31    20    23    1
    32    23    24    3
    33    20    21   ar
    34    21    22   ar
    35     8     1    1
    36    22    17   ar
    37     9     3    1
    38    34    28   ar
@<TRIPOS>MOLECULE
*****
 35 38 0 0 0
SMALL
GASTEIGER

@<TRIPOS>ATOM
      1 N         138.8309  139.2015  162.1213 N.3     1  UNL1       -0.2673
      2 C         137.7440  140.2059  161.8766 C.3     1  UNL1        0.1035
      3 C         138.0700  141.5227  161.2365 C.3     1  UNL1        0.1470
      4 C         138.3959  142.8395  160.5963 C.3     1  UNL1        0.1036
      5 N         139.8087  143.1520  160.2009 N.3     1  UNL1       -0.2653
      6 C         140.8956  142.1475  160.4456 C.3     1  UNL1        0.1036
      7 C         140.5697  140.8307  161.0857 C.3     1  UNL1        0.1470
      8 C         140.2437  139.5139  161.7259 C.3     1  UNL1        0.1035
      9 O         139.4828  141.8351  160.8410 O.3     1  UNL1       -0.3530
     10 C         138.5050  137.8847  162.7615 C.3     1  UNL1        0.0916
     11 C         138.8586  137.6415  164.1987 C.3     1  UNL1        0.1131
     12 C         141.3250  136.8334  164.0803 C.3     1  UNL1        0.1149
     13 N         140.2851  137.7525  164.6493 N.3     1  UNL1       -0.1526
     14 S         140.6716  138.7827  165.6688 S.O2    1  UNL1        0.0634
     15 O         139.2239  139.1077  165.8891 O.2     1  UNL1       -0.1528
     16 O         142.1192  138.4577  165.4484 O.2     1  UNL1       -0.1528
     17 C         141.0580  139.8129  166.6883 C.ar    1  UNL1        0.1222
     18 C         142.4217  140.4361  166.6451 C.ar    1  UNL1        0.0206
     19 C         142.8082  141.4663  167.6645 C.ar    1  UNL1        0.0116
     20 C         141.8309  141.8733  168.7272 C.ar    1  UNL1        0.0685
     21 C         140.4672  141.2501  168.7705 C.ar    1  UNL1        0.0116
     22 C         140.0807  140.2199  167.7510 C.ar    1  UNL1        0.0206
     23 C         142.2174  142.9035  169.7467 C.1     1  UNL1        0.1004
     24 N         142.6039  143.9337  170.7662 N.1     1  UNL1       -0.1908
     25 C         140.1347  144.4687  159.5608 C.3     1  UNL1        0.1202
     26 C         140.7676  145.5606  160.3716 C.3     1  UNL1        0.2229
     27 O         140.1524  145.9809  161.6734 O.3     1  UNL1       -0.4694
     28 C         140.2570  145.0891  162.8749 C.ar    1  UNL1        0.1930
     29 C         141.6044  144.7319  163.4287 C.ar    1  UNL1        0.1761
     30 F         142.8473  145.2665  162.7811 F       1  UNL1       -0.2009
     31 C         141.7090  143.8400  164.6303 C.ar    1  UNL1        0.0329
     32 C         140.4662  143.3054  165.2779 C.ar    1  UNL1        0.0048
     33 C         139.1187  143.6626  164.7241 C.ar    1  UNL1        0.0329
     34 C         139.0141  144.5544  163.5226 C.ar    1  UNL1        0.1761
     35 F         137.6666  144.9116  162.9687 F       1  UNL1       -0.2009
@<TRIPOS>BOND
     1    12    13    1
     2    13    11    1
     3    11    10    1
     4    10     1    1
     5     1     2    1
     6     2     3    1
     7     3     4    1
     8     4     5    1
     9     5    25    1
    10    25    26    1
    11    26    27    1
    12    27    28    1
    13    28    29   ar
    14    29    30    1
    15    29    31   ar
    16    31    32   ar
    17    32    33   ar
    18    33    34   ar
    19    34    35    1
    20     5     6    1
    21     6     7    1
    22     7     8    1
    23     7     9    1
    24    13    14    1
    25    14    15    2
    26    14    16    2
    27    14    17    1
    28    17    18   ar
    29    18    19   ar
    30    19    20   ar
    31    20    23    1
    32    23    24    3
    33    20    21   ar
    34    21    22   ar
    35     8     1    1
    36    22    17   ar
    37     9     3    1
    38    34    28   ar
@<TRIPOS>MOLECULE
*****
 35 38 0 0 0
SMALL
GASTEIGER

@<TRIPOS>ATOM
      1 N         139.9892  139.3137  161.6186 N.3     1  UNL1       -0.2673
      2 C         141.0432  139.9191  160.7397 C.3     1  UNL1        0.1035
      3 C         141.0537  141.3983  160.4913 C.3     1  UNL1        0.1470
      4 C         141.0642  142.8776  160.2427 C.3     1  UNL1        0.1036
      5 N         140.0206  143.7514  160.8731 N.3     1  UNL1       -0.2653
      6 C         138.9665  143.1459  161.7520 C.3     1  UNL1        0.1036
      7 C         138.9560  141.6667  162.0004 C.3     1  UNL1        0.1470
      8 C         138.9456  140.1875  162.2489 C.3     1  UNL1        0.1035
      9 O         140.0101  142.2721  161.1216 O.3     1  UNL1       -0.3530
     10 C         139.9786  137.8344  161.8671 C.3     1  UNL1        0.0916
     11 C         141.0099  137.2174  162.7647 C.3     1  UNL1        0.1131
     12 C         143.3165  138.4113  162.7026 C.3     1  UNL1        0.1149
     13 N         142.0437  138.0813  163.4243 N.3     1  UNL1       -0.1526
     14 S         141.8045  138.6151  164.8055 S.O2    1  UNL1        0.0634
     15 O         140.7100  137.6090  165.0049 O.2     1  UNL1       -0.1528
     16 O         142.8991  139.6212  164.6062 O.2     1  UNL1       -0.1528
     17 C         141.5654  139.1490  166.1868 C.ar    1  UNL1        0.1222
     18 C         140.1890  139.5835  166.5950 C.ar    1  UNL1        0.0206
     19 C         139.9499  140.1173  167.9763 C.ar    1  UNL1        0.0116
     20 C         141.0871  140.2167  168.9493 C.ar    1  UNL1        0.0685
     21 C         142.4636  139.7821  168.5410 C.ar    1  UNL1        0.0116
     22 C         142.7027  139.2483  167.1598 C.ar    1  UNL1        0.0206
     23 C         140.8480  140.7505  170.3305 C.1     1  UNL1        0.1004
     24 N         140.6088  141.2844  171.7117 N.1     1  UNL1       -0.1908
     25 C         140.0311  145.2306  160.6246 C.3     1  UNL1        0.1202
     26 C         139.7986  146.1835  161.7595 C.3     1  UNL1        0.2229
     27 O         140.8088  146.2969  162.8625 O.3     1  UNL1       -0.4694
     28 C         141.1012  145.1134  163.7364 C.ar    1  UNL1        0.1930
     29 C         142.4391  144.4393  163.6631 C.ar    1  UNL1        0.1761
     30 F         143.4847  144.9487  162.7159 F       1  UNL1       -0.2009
     31 C         142.7315  143.2557  164.5370 C.ar    1  UNL1        0.0329
     32 C         141.6859  142.7463  165.4842 C.ar    1  UNL1        0.0048
     33 C         140.3479  143.4204  165.5575 C.ar    1  UNL1        0.0329
     34 C         140.0555  144.6040  164.6837 C.ar    1  UNL1        0.1761
     35 F         138.7176  145.2781  164.7570 F       1  UNL1       -0.2009
@<TRIPOS>BOND
     1    12    13    1
     2    13    11    1
     3    11    10    1
     4    10     1    1
     5     1     2    1
     6     2     3    1
     7     3     4    1
     8     4     5    1
     9     5    25    1
    10    25    26    1
    11    26    27    1
    12    27    28    1
    13    28    29   ar
    14    29    30    1
    15    29    31   ar
    16    31    32   ar
    17    32    33   ar
    18    33    34   ar
    19    34    35    1
    20     5     6    1
    21     6     7    1
    22     7     8    1
    23     7     9    1
    24    13    14    1
    25    14    15    2
    26    14    16    2
    27    14    17    1
    28    17    18   ar
    29    18    19   ar
    30    19    20   ar
    31    20    23    1
    32    23    24    3
    33    20    21   ar
    34    21    22   ar
    35     8     1    1
    36    22    17   ar
    37     9     3    1
    38    34    28   ar
@<TRIPOS>MOLECULE
*****
 35 38 0 0 0
SMALL
GASTEIGER

@<TRIPOS>ATOM
      1 N         143.0932  138.6797  165.5897 N.3     1  UNL1       -0.2673
      2 C         144.1789  139.2117  164.7019 C.3     1  UNL1        0.1035
      3 C         144.0761  139.0527  163.2140 C.3     1  UNL1        0.1470
      4 C         143.9734  138.8938  161.7259 C.3     1  UNL1        0.1036
      5 N         142.7849  138.2029  161.1257 N.3     1  UNL1       -0.2653
      6 C         141.6992  137.6709  162.0136 C.3     1  UNL1        0.1036
      7 C         141.8020  137.8298  163.5016 C.3     1  UNL1        0.1470
      8 C         141.9047  137.9888  164.9895 C.3     1  UNL1        0.1035
      9 O         142.8877  138.3618  162.6138 O.3     1  UNL1       -0.3530
     10 C         143.1959  138.8387  167.0778 C.3     1  UNL1        0.0916
     11 C         142.1829  139.6627  167.8157 C.3     1  UNL1        0.1131
     12 C         143.0389  141.7499  169.1046 C.3     1  UNL1        0.1149
     13 N         142.3530  141.1499  167.9131 N.3     1  UNL1       -0.1526
     14 S         141.8373  142.0370  166.8190 S.O2    1  UNL1        0.0634
     15 O         140.4313  141.6430  167.1623 O.2     1  UNL1       -0.1528
     16 O         143.2433  142.4311  166.4758 O.2     1  UNL1       -0.1528
     17 C         141.3216  142.9242  165.7249 C.ar    1  UNL1        0.1222
     18 C         142.2458  143.3914  164.6399 C.ar    1  UNL1        0.0206
     19 C         141.7301  144.2785  163.5458 C.ar    1  UNL1        0.0116
     20 C         140.2902  144.6984  163.5367 C.ar    1  UNL1        0.0685
     21 C         139.3658  144.2312  164.6218 C.ar    1  UNL1        0.0116
     22 C         139.8815  143.3440  165.7159 C.ar    1  UNL1        0.0206
     23 C         139.7744  145.5855  162.4426 C.1     1  UNL1        0.1004
     24 N         139.2587  146.4726  161.3485 N.1     1  UNL1       -0.1908
     25 C         142.6822  138.0439  159.6377 C.3     1  UNL1        0.1202
     26 C         141.6858  138.8553  158.8638 C.3     1  UNL1        0.2229
     27 O         141.2996  140.2236  159.3418 O.3     1  UNL1       -0.4694
     28 C         140.1551  140.3890  160.2971 C.ar    1  UNL1        0.1930
     29 C         140.3990  140.9363  161.6722 C.ar    1  UNL1        0.1761
     30 F         141.7875  141.3182  162.0920 F       1  UNL1       -0.2009
     31 C         139.2544  141.1017  162.6275 C.ar    1  UNL1        0.0329
     32 C         137.8660  140.7198  162.2077 C.ar    1  UNL1        0.0048
     33 C         137.6220  140.1725  160.8326 C.ar    1  UNL1        0.0329
     34 C         138.7666  140.0071  159.8773 C.ar    1  UNL1        0.1761
     35 F         138.5226  139.4598  158.5022 F       1  UNL1       -0.2009
@<TRIPOS>BOND
     1    12    13    1
     2    13    11    1
     3    11    10    1
     4    10     1    1
     5     1     2    1
     6     2     3    1
     7     3     4    1
     8     4     5    1
     9     5    25    1
    10    25    26    1
    11    26    27    1
    12    27    28    1
    13    28    29   ar
    14    29    30    1
    15    29    31   ar
    16    31    32   ar
    17    32    33   ar
    18    33    34   ar
    19    34    35    1
    20     5     6    1
    21     6     7    1
    22     7     8    1
    23     7     9    1
    24    13    14    1
    25    14    15    2
    26    14    16    2
    27    14    17    1
    28    17    18   ar
    29    18    19   ar
    30    19    20   ar
    31    20    23    1
    32    23    24    3
    33    20    21   ar
    34    21    22   ar
    35     8     1    1
    36    22    17   ar
    37     9     3    1
    38    34    28   ar
@<TRIPOS>MOLECULE
*****
 35 38 0 0 0
SMALL
GASTEIGER

@<TRIPOS>ATOM
      1 N         141.9736  139.4701  158.9814 N.3     1  UNL1       -0.2673
      2 C         142.4318  140.8926  158.8530 C.3     1  UNL1        0.1035
      3 C         143.3628  141.4756  159.8744 C.3     1  UNL1        0.1470
      4 C         144.2938  142.0588  160.8958 C.3     1  UNL1        0.1036
      5 N         144.7665  141.2194  162.0456 N.3     1  UNL1       -0.2653
      6 C         144.3083  139.7968  162.1739 C.3     1  UNL1        0.1036
      7 C         143.3773  139.2138  161.1525 C.3     1  UNL1        0.1470
      8 C         142.4463  138.6307  160.1312 C.3     1  UNL1        0.1035
      9 O         143.8355  140.6362  161.0242 O.3     1  UNL1       -0.3530
     10 C         141.0426  138.8869  157.9600 C.3     1  UNL1        0.0916
     11 C         139.6440  138.5094  158.3489 C.3     1  UNL1        0.1131
     12 C         138.0160  140.5342  158.3436 C.3     1  UNL1        0.1149
     13 N         138.7831  139.4862  159.0939 N.3     1  UNL1       -0.1526
     14 S         138.6895  139.4148  160.5893 S.O2    1  UNL1        0.0634
     15 O         138.3738  140.8803  160.6394 O.2     1  UNL1       -0.1528
     16 O         139.0052  137.9493  160.5391 O.2     1  UNL1       -0.1528
     17 C         138.5958  139.3434  162.0847 C.ar    1  UNL1        0.1222
     18 C         139.0258  138.0997  162.8045 C.ar    1  UNL1        0.0206
     19 C         138.9321  138.0284  164.2999 C.ar    1  UNL1        0.0116
     20 C         138.4085  139.2007  165.0754 C.ar    1  UNL1        0.0685
     21 C         137.9785  140.4445  164.3555 C.ar    1  UNL1        0.0116
     22 C         138.0722  140.5159  162.8601 C.ar    1  UNL1        0.0206
     23 C         138.3149  139.1293  166.5708 C.1     1  UNL1        0.1004
     24 N         138.2212  139.0580  168.0661 N.1     1  UNL1       -0.1908
     25 C         145.6975  141.8025  163.0670 C.3     1  UNL1        0.1202
     26 C         145.1662  142.2529  164.3955 C.3     1  UNL1        0.2229
     27 O         143.7094  142.0920  164.7144 O.3     1  UNL1       -0.4694
     28 C         142.6972  142.9941  164.0729 C.ar    1  UNL1        0.1930
     29 C         141.5040  142.4082  163.3780 C.ar    1  UNL1        0.1761
     30 F         141.3229  140.9201  163.3246 F       1  UNL1       -0.2009
     31 C         140.4917  143.3104  162.7365 C.ar    1  UNL1        0.0329
     32 C         140.6728  144.7984  162.7898 C.ar    1  UNL1        0.0048
     33 C         141.8660  145.3844  163.4847 C.ar    1  UNL1        0.0329
     34 C         142.8782  144.4822  164.1262 C.ar    1  UNL1        0.1761
     35 F         144.0715  145.0682  164.8211 F       1  UNL1       -0.2009
@<TRIPOS>BOND
     1    12    13    1
     2    13    11    1
     3    11    10    1
     4    10     1    1
     5     1     2    1
     6     2     3    1
     7     3     4    1
     8     4     5    1
     9     5    25    1
    10    25    26    1
    11    26    27    1
    12    27    28    1
    13    28    29   ar
    14    29    30    1
    15    29    31   ar
    16    31    32   ar
    17    32    33   ar
    18    33    34   ar
    19    34    35    1
    20     5     6    1
    21     6     7    1
    22     7     8    1
    23     7     9    1
    24    13    14    1
    25    14    15    2
    26    14    16    2
    27    14    17    1
    28    17    18   ar
    29    18    19   ar
    30    19    20   ar
    31    20    23    1
    32    23    24    3
    33    20    21   ar
    34    21    22   ar
    35     8     1    1
    36    22    17   ar
    37     9     3    1
    38    34    28   ar
@<TRIPOS>MOLECULE
*****
 35 38 0 0 0
SMALL
GASTEIGER

@<TRIPOS>ATOM
      1 N         142.7163  138.9643  165.8967 N.3     1  UNL1       -0.2673
      2 C         141.7828  137.9090  165.3821 C.3     1  UNL1        0.1035
      3 C         141.5678  137.7531  163.9058 C.3     1  UNL1        0.1470
      4 C         141.3528  137.5973  162.4294 C.3     1  UNL1        0.1036
      5 N         142.0713  138.4968  161.4678 N.3     1  UNL1       -0.2653
      6 C         143.0048  139.5521  161.9826 C.3     1  UNL1        0.1036
      7 C         143.2198  139.7079  163.4588 C.3     1  UNL1        0.1470
      8 C         143.4348  139.8637  164.9351 C.3     1  UNL1        0.1035
      9 O         142.2863  138.6526  162.9442 O.3     1  UNL1       -0.3530
     10 C         142.9313  139.1201  167.3731 C.3     1  UNL1        0.0916
     11 C         142.3370  140.2910  168.0981 C.3     1  UNL1        0.1131
     12 C         139.7857  140.1622  168.5721 C.3     1  UNL1        0.1149
     13 N         140.9352  140.7292  167.7929 N.3     1  UNL1       -0.1526
     14 S         140.6829  141.7344  166.7086 S.O2    1  UNL1        0.0634
     15 O         141.6218  142.6931  167.3789 O.2     1  UNL1       -0.1528
     16 O         139.7440  140.7757  166.0382 O.2     1  UNL1       -0.1528
     17 C         140.4306  142.7397  165.6242 C.ar    1  UNL1        0.1222
     18 C         141.2385  142.6989  164.3610 C.ar    1  UNL1        0.0206
     19 C         140.9862  143.7041  163.2766 C.ar    1  UNL1        0.0116
     20 C         139.9261  144.7501  163.4554 C.ar    1  UNL1        0.0685
     21 C         139.1182  144.7910  164.7187 C.ar    1  UNL1        0.0116
     22 C         139.3705  143.7857  165.8031 C.ar    1  UNL1        0.0206
     23 C         139.6739  145.7554  162.3711 C.1     1  UNL1        0.1004
     24 N         139.4216  146.7606  161.2867 N.1     1  UNL1       -0.1908
     25 C         141.8563  138.3410  159.9915 C.3     1  UNL1        0.1202
     26 C         140.6434  138.9396  159.3429 C.3     1  UNL1        0.2229
     27 O         139.2953  138.7782  159.9805 O.3     1  UNL1       -0.4694
     28 C         138.7464  139.8631  160.8590 C.ar    1  UNL1        0.1930
     29 C         138.1841  139.5236  162.2075 C.ar    1  UNL1        0.1761
     30 F         138.1705  138.0992  162.6775 F       1  UNL1       -0.2009
     31 C         137.6352  140.6085  163.0860 C.ar    1  UNL1        0.0329
     32 C         137.6488  142.0329  162.6160 C.ar    1  UNL1        0.0048
     33 C         138.2111  142.3724  161.2675 C.ar    1  UNL1        0.0329
     34 C         138.7600  141.2875  160.3890 C.ar    1  UNL1        0.1761
     35 F         139.3223  141.6270  159.0405 F       1  UNL1       -0.2009
@<TRIPOS>BOND
     1    12    13    1
     2    13    11    1
     3    11    10    1
     4    10     1    1
     5     1     2    1
     6     2     3    1
     7     3     4    1
     8     4     5    1
     9     5    25    1
    10    25    26    1
    11    26    27    1
    12    27    28    1
    13    28    29   ar
    14    29    30    1
    15    29    31   ar
    16    31    32   ar
    17    32    33   ar
    18    33    34   ar
    19    34    35    1
    20     5     6    1
    21     6     7    1
    22     7     8    1
    23     7     9    1
    24    13    14    1
    25    14    15    2
    26    14    16    2
    27    14    17    1
    28    17    18   ar
    29    18    19   ar
    30    19    20   ar
    31    20    23    1
    32    23    24    3
    33    20    21   ar
    34    21    22   ar
    35     8     1    1
    36    22    17   ar
    37     9     3    1
    38    34    28   ar
@<TRIPOS>MOLECULE
*****
 35 38 0 0 0
SMALL
GASTEIGER

@<TRIPOS>ATOM
      1 N         143.2210  143.4905  161.9997 N.3     1  UNL1       -0.2673
      2 C         141.9414  144.2727  162.0281 C.3     1  UNL1        0.1035
      3 C         140.7173  143.7330  161.3498 C.3     1  UNL1        0.1470
      4 C         139.4931  143.1933  160.6714 C.3     1  UNL1        0.1036
      5 N         139.5485  141.8713  159.9647 N.3     1  UNL1       -0.2653
      6 C         140.8282  141.0891  159.9364 C.3     1  UNL1        0.1036
      7 C         142.0523  141.6289  160.6147 C.3     1  UNL1        0.1470
      8 C         143.2764  142.1686  161.2930 C.3     1  UNL1        0.1035
      9 O         140.7727  142.4111  160.6431 O.3     1  UNL1       -0.3530
     10 C         144.4452  144.0302  162.6780 C.3     1  UNL1        0.0916
     11 C         144.7637  143.6227  164.0860 C.3     1  UNL1        0.1131
     12 C         145.5134  141.1391  163.9451 C.3     1  UNL1        0.1149
     13 N         144.6044  142.1917  164.5069 N.3     1  UNL1       -0.1526
     14 S         143.5360  141.8135  165.4895 S.O2    1  UNL1        0.0634
     15 O         143.7236  140.3676  165.1369 O.2     1  UNL1       -0.1528
     16 O         143.3485  143.2593  165.8421 O.2     1  UNL1       -0.1528
     17 C         142.4677  141.4352  166.4721 C.ar    1  UNL1        0.1222
     18 C         141.3826  142.4129  166.8136 C.ar    1  UNL1        0.0206
     19 C         140.3143  142.0347  167.7963 C.ar    1  UNL1        0.0116
     20 C         140.3310  140.6788  168.4374 C.ar    1  UNL1        0.0685
     21 C         141.4162  139.7010  168.0960 C.ar    1  UNL1        0.0116
     22 C         142.4845  140.0792  167.1133 C.ar    1  UNL1        0.0206
     23 C         139.2627  140.3005  169.4201 C.1     1  UNL1        0.1004
     24 N         138.1944  139.9223  170.4027 N.1     1  UNL1       -0.1908
     25 C         138.3244  141.3316  159.2864 C.3     1  UNL1        0.1202
     26 C         137.6899  140.0653  159.7804 C.3     1  UNL1        0.2229
     27 O         136.9519  140.0562  161.0863 O.3     1  UNL1       -0.4694
     28 C         137.7123  139.9798  162.3769 C.ar    1  UNL1        0.1930
     29 C         137.7920  141.1804  163.2726 C.ar    1  UNL1        0.1761
     30 F         137.1114  142.4573  162.8776 F       1  UNL1       -0.2009
     31 C         138.5525  141.1039  164.5634 C.ar    1  UNL1        0.0329
     32 C         139.2331  139.8270  164.9584 C.ar    1  UNL1        0.0048
     33 C         139.1533  138.6264  164.0627 C.ar    1  UNL1        0.0329
     34 C         138.3929  138.7028  162.7720 C.ar    1  UNL1        0.1761
     35 F         138.3132  137.5022  161.8763 F       1  UNL1       -0.2009
@<TRIPOS>BOND
     1    12    13    1
     2    13    11    1
     3    11    10    1
     4    10     1    1
     5     1     2    1
     6     2     3    1
     7     3     4    1
     8     4     5    1
     9     5    25    1
    10    25    26    1
    11    26    27    1
    12    27    28    1
    13    28    29   ar
    14    29    30    1
    15    29    31   ar
    16    31    32   ar
    17    32    33   ar
    18    33    34   ar
    19    34    35    1
    20     5     6    1
    21     6     7    1
    22     7     8    1
    23     7     9    1
    24    13    14    1
    25    14    15    2
    26    14    16    2
    27    14    17    1
    28    17    18   ar
    29    18    19   ar
    30    19    20   ar
    31    20    23    1
    32    23    24    3
    33    20    21   ar
    34    21    22   ar
    35     8     1    1
    36    22    17   ar
    37     9     3    1
    38    34    28   ar
@<TRIPOS>MOLECULE
*****
 35 38 0 0 0
SMALL
GASTEIGER

@<TRIPOS>ATOM
      1 N         143.8210  140.7269  160.1199 N.3     1  UNL1       -0.2673
      2 C         143.0384  139.5287  159.6707 C.3     1  UNL1        0.1035
      3 C         142.4178  138.6148  160.6853 C.3     1  UNL1        0.1470
      4 C         141.7973  137.7008  161.7000 C.3     1  UNL1        0.1036
      5 N         141.9594  137.9850  163.1639 N.3     1  UNL1       -0.2653
      6 C         142.7420  139.1832  163.6131 C.3     1  UNL1        0.1036
      7 C         143.3626  140.0972  162.5984 C.3     1  UNL1        0.1470
      8 C         143.9831  141.0111  161.5838 C.3     1  UNL1        0.1035
      9 O         142.5799  138.8990  162.1492 O.3     1  UNL1       -0.3530
     10 C         144.4416  141.6409  159.1052 C.3     1  UNL1        0.0916
     11 C         143.7801  142.9435  158.7652 C.3     1  UNL1        0.1131
     12 C         141.4828  142.7690  157.5644 C.3     1  UNL1        0.1149
     13 N         142.2847  143.0565  158.7989 N.3     1  UNL1       -0.1526
     14 S         141.5913  143.4571  160.0673 S.O2    1  UNL1        0.0634
     15 O         140.8207  142.1702  160.0524 O.2     1  UNL1       -0.1528
     16 O         142.3619  144.7440  160.0822 O.2     1  UNL1       -0.1528
     17 C         140.8979  143.8577  161.3357 C.ar    1  UNL1        0.1222
     18 C         139.7222  144.7878  161.2861 C.ar    1  UNL1        0.0206
     19 C         139.0288  145.1884  162.5545 C.ar    1  UNL1        0.0116
     20 C         139.5111  144.6588  163.8724 C.ar    1  UNL1        0.0685
     21 C         140.6868  143.7286  163.9220 C.ar    1  UNL1        0.0116
     22 C         141.3802  143.3280  162.6536 C.ar    1  UNL1        0.0206
     23 C         138.8176  145.0593  165.1407 C.1     1  UNL1        0.1004
     24 N         138.1242  145.4599  166.4091 N.1     1  UNL1       -0.1908
     25 C         141.3388  137.0710  164.1786 C.3     1  UNL1        0.1202
     26 C         140.1083  137.5002  164.9213 C.3     1  UNL1        0.2229
     27 O         138.8091  137.6633  164.1895 O.3     1  UNL1       -0.4694
     28 C         138.4481  138.9894  163.5888 C.ar    1  UNL1        0.1930
     29 C         138.3332  139.1321  162.1000 C.ar    1  UNL1        0.1761
     30 F         138.5792  137.9485  161.2119 F       1  UNL1       -0.2009
     31 C         137.9721  140.4583  161.4993 C.ar    1  UNL1        0.0329
     32 C         137.7261  141.6418  162.3873 C.ar    1  UNL1        0.0048
     33 C         137.8410  141.4992  163.8761 C.ar    1  UNL1        0.0329
     34 C         138.2020  140.1731  164.4768 C.ar    1  UNL1        0.1761
     35 F         138.3170  140.0304  165.9656 F       1  UNL1       -0.2009
@<TRIPOS>BOND
     1    12    13    1
     2    13    11    1
     3    11    10    1
     4    10     1    1
     5     1     2    1
     6     2     3    1
     7     3     4    1
     8     4     5    1
     9     5    25    1
    10    25    26    1
    11    26    27    1
    12    27    28    1
    13    28    29   ar
    14    29    30    1
    15    29    31   ar
    16    31    32   ar
    17    32    33   ar
    18    33    34   ar
    19    34    35    1
    20     5     6    1
    21     6     7    1
    22     7     8    1
    23     7     9    1
    24    13    14    1
    25    14    15    2
    26    14    16    2
    27    14    17    1
    28    17    18   ar
    29    18    19   ar
    30    19    20   ar
    31    20    23    1
    32    23    24    3
    33    20    21   ar
    34    21    22   ar
    35     8     1    1
    36    22    17   ar
    37     9     3    1
    38    34    28   ar
