@<TRIPOS>MOLECULE
*****
 35 38 0 0 0
SMALL
GASTEIGER

@<TRIPOS>ATOM
      1 C         140.9160  142.7913  160.7328 C.3     1  UNL1        0.0604
      2 C         140.9157  142.2335  159.3404 C.3     1  UNL1        0.0352
      3 C         140.8945  143.1603  158.1611 C.3     1  UNL1        0.0985
      4 N         140.8736  144.6449  158.3743 N.3     1  UNL1       -0.1427
      5 C         140.8739  145.2027  159.7667 C.3     1  UNL1        0.0985
      6 C         140.8951  144.2760  160.9459 C.3     1  UNL1        0.0352
      7 C         140.9796  140.0111  164.2706 C.3     1  UNL1        0.1687
      8 C         140.5922  141.4486  164.4533 C.3     1  UNL1        0.0609
      9 C         140.5710  142.3754  163.2740 C.3     1  UNL1        0.0758
     10 N         140.9372  141.8646  161.9120 N.3     1  UNL1       -0.2736
     11 C         141.3246  140.4270  161.7293 C.3     1  UNL1        0.0758
     12 C         141.3458  139.5003  162.9086 C.3     1  UNL1        0.0609
     13 O         141.0008  139.0843  165.4498 O.3     1  UNL1       -0.4782
     14 C         138.8665  140.4700  169.9803 C.3     1  UNL1        0.0329
     15 C         140.0745  140.3311  169.1019 C.ar    1  UNL1        0.0023
     16 C         141.4232  140.7462  169.6103 C.ar    1  UNL1        0.0547
     17 CL        141.5641  141.3002  170.9972 Cl      1  UNL1       -0.0825
     18 C         142.6312  140.6073  168.7319 C.ar    1  UNL1        0.0142
     19 C         142.4904  140.0534  167.3451 C.ar    1  UNL1        0.0386
     20 C         141.1416  139.6383  166.8367 C.ar    1  UNL1        0.1485
     21 C         139.9337  139.7772  167.7151 C.ar    1  UNL1        0.0884
     22 CL        138.5849  139.3620  167.2066 Cl      1  UNL1       -0.0794
     23 S         140.8524  145.5716  157.1951 S.O2    1  UNL1        0.1153
     24 O         139.6106  144.8994  156.6891 O.2     1  UNL1       -0.1378
     25 O         142.0942  146.2439  157.7010 O.2     1  UNL1       -0.1378
     26 N         140.8312  146.4984  156.0157 N.am    1  UNL1       -0.1714
     27 C         139.8325  147.6161  155.9581 C.2     1  UNL1        0.2651
     28 O         138.8550  147.8071  157.0798 O.2     1  UNL1       -0.2685
     29 H         141.4727  146.3731  155.2796 H       1  UNL1        0.1779
     30 C         139.8113  148.5429  154.7788 C.ar    1  UNL1        0.0549
     31 C         140.3562  148.0878  153.4574 C.ar    1  UNL1        0.0046
     32 C         140.3350  149.0145  152.2782 C.ar    1  UNL1        0.0001
     33 C         139.7688  150.3963  152.4202 C.ar    1  UNL1        0.0000
     34 C         139.2238  150.8513  153.7416 C.ar    1  UNL1        0.0001
     35 C         139.2451  149.9246  154.9208 C.ar    1  UNL1        0.0046
@<TRIPOS>BOND
     1    14    15    1
     2    15    16   ar
     3    16    17    1
     4    16    18   ar
     5    18    19   ar
     6    19    20   ar
     7    20    13    1
     8    13     7    1
     9     7     8    1
    10     8     9    1
    11     9    10    1
    12    10     1    1
    13     1     2    1
    14     2     3    1
    15     3     4    1
    16     4    23    1
    17    23    24    2
    18    23    25    2
    19    23    26    1
    20    26    27   am
    21    27    28    2
    22    27    30    1
    23    30    31   ar
    24    31    32   ar
    25    32    33   ar
    26    33    34   ar
    27    34    35   ar
    28     4     5    1
    29     5     6    1
    30    10    11    1
    31    11    12    1
    32    20    21   ar
    33    21    22    1
    34    21    15   ar
    35    12     7    1
    36     6     1    1
    37    35    30   ar
    38    26    29    1
@<TRIPOS>MOLECULE
*****
 35 38 0 0 0
SMALL
GASTEIGER

@<TRIPOS>ATOM
      1 C         140.6986  138.3655  157.5760 C.3     1  UNL1        0.0604
      2 C         142.0656  137.8870  157.9664 C.3     1  UNL1        0.0352
      3 C         142.6663  136.6944  157.2831 C.3     1  UNL1        0.0985
      4 N         141.8999  135.9802  156.2095 N.3     1  UNL1       -0.1427
      5 C         140.5329  136.4587  155.8191 C.3     1  UNL1        0.0985
      6 C         139.9322  137.6513  156.5024 C.3     1  UNL1        0.0352
      7 C         138.8965  141.9432  159.6259 C.3     1  UNL1        0.1687
      8 C         138.5544  140.5597  160.0936 C.3     1  UNL1        0.0609
      9 C         139.1551  139.3671  159.4102 C.3     1  UNL1        0.0758
     10 N         140.0979  139.5580  158.2593 N.3     1  UNL1       -0.2736
     11 C         140.4400  140.9416  157.7916 C.3     1  UNL1        0.0758
     12 C         139.8393  142.1342  158.4749 C.3     1  UNL1        0.0609
     13 O         138.2958  143.1358  160.3091 O.3     1  UNL1       -0.4782
     14 C         141.4707  145.0200  163.9656 C.3     1  UNL1        0.0329
     15 C         140.1866  144.3466  163.5816 C.ar    1  UNL1        0.0023
     16 C         139.2058  143.9418  164.6418 C.ar    1  UNL1        0.0547
     17 CL        139.5091  144.2105  166.0861 Cl      1  UNL1       -0.0825
     18 C         137.9216  143.2684  164.2579 C.ar    1  UNL1        0.0142
     19 C         137.6183  142.9997  162.8137 C.ar    1  UNL1        0.0386
     20 C         138.5991  143.4045  161.7534 C.ar    1  UNL1        0.1485
     21 C         139.8833  144.0779  162.1374 C.ar    1  UNL1        0.0884
     22 CL        140.8641  144.4827  161.0771 Cl      1  UNL1       -0.0794
     23 S         142.5006  134.7877  155.5262 S.O2    1  UNL1        0.1153
     24 O         143.8546  135.1731  156.0438 O.2     1  UNL1       -0.1378
     25 O         141.1466  134.4022  155.0087 O.2     1  UNL1       -0.1378
     26 N         143.1014  133.5950  154.8429 N.am    1  UNL1       -0.1714
     27 C         143.1577  132.2741  155.5515 C.2     1  UNL1        0.2651
     28 O         142.6132  132.1458  156.9433 O.2     1  UNL1       -0.2685
     29 H         143.4587  133.6792  153.9294 H       1  UNL1        0.1779
     30 C         143.7584  131.0815  154.8682 C.ar    1  UNL1        0.0549
     31 C         143.6056  130.9105  153.3858 C.ar    1  UNL1        0.0046
     32 C         144.2063  129.7180  152.7025 C.ar    1  UNL1        0.0001
     33 C         144.9598  128.6964  153.5016 C.ar    1  UNL1        0.0000
     34 C         145.1126  128.8674  154.9840 C.ar    1  UNL1        0.0001
     35 C         144.5119  130.0599  155.6673 C.ar    1  UNL1        0.0046
@<TRIPOS>BOND
     1    14    15    1
     2    15    16   ar
     3    16    17    1
     4    16    18   ar
     5    18    19   ar
     6    19    20   ar
     7    20    13    1
     8    13     7    1
     9     7     8    1
    10     8     9    1
    11     9    10    1
    12    10     1    1
    13     1     2    1
    14     2     3    1
    15     3     4    1
    16     4    23    1
    17    23    24    2
    18    23    25    2
    19    23    26    1
    20    26    27   am
    21    27    28    2
    22    27    30    1
    23    30    31   ar
    24    31    32   ar
    25    32    33   ar
    26    33    34   ar
    27    34    35   ar
    28     4     5    1
    29     5     6    1
    30    10    11    1
    31    11    12    1
    32    20    21   ar
    33    21    22    1
    34    21    15   ar
    35    12     7    1
    36     6     1    1
    37    35    30   ar
    38    26    29    1
@<TRIPOS>MOLECULE
*****
 35 38 0 0 0
SMALL
GASTEIGER

@<TRIPOS>ATOM
      1 C         142.8226  137.7666  160.1423 C.3     1  UNL1        0.0604
      2 C         141.5898  138.6122  160.2659 C.3     1  UNL1        0.0352
      3 C         141.4021  139.4937  161.4651 C.3     1  UNL1        0.0985
      4 N         142.4471  139.5295  162.5405 N.3     1  UNL1       -0.1427
      5 C         143.6799  138.6839  162.4169 C.3     1  UNL1        0.0985
      6 C         143.8676  137.8025  161.2178 C.3     1  UNL1        0.0352
      7 C         143.3858  135.1223  156.5450 C.3     1  UNL1        0.1687
      8 C         142.9764  136.5543  156.3665 C.3     1  UNL1        0.0609
      9 C         142.7887  137.4357  157.5657 C.3     1  UNL1        0.0758
     10 N         143.0103  136.8852  158.9433 N.3     1  UNL1       -0.2736
     11 C         143.4197  135.4532  159.1218 C.3     1  UNL1        0.0758
     12 C         143.6075  134.5718  157.9227 C.3     1  UNL1        0.0609
     13 O         143.5736  134.2409  155.3460 O.3     1  UNL1       -0.4782
     14 C         143.5660  129.0777  155.9306 C.3     1  UNL1        0.0329
     15 C         142.8542  130.3436  155.5552 C.ar    1  UNL1        0.0023
     16 C         141.4269  130.2938  155.0967 C.ar    1  UNL1        0.0547
     17 CL        140.7113  128.9780  155.0136 Cl      1  UNL1       -0.0825
     18 C         140.7151  131.5597  154.7213 C.ar    1  UNL1        0.0142
     19 C         141.4307  132.8753  154.8044 C.ar    1  UNL1        0.0386
     20 C         142.8580  132.9251  155.2629 C.ar    1  UNL1        0.1485
     21 C         143.5697  131.6593  155.6383 C.ar    1  UNL1        0.0884
     22 CL        144.9971  131.7091  156.0968 Cl      1  UNL1       -0.0794
     23 S         142.2594  140.4109  163.7396 S.O2    1  UNL1        0.1153
     24 O         140.7815  140.1583  163.6939 O.2     1  UNL1       -0.1378
     25 O         143.7372  140.6636  163.7852 O.2     1  UNL1       -0.1378
     26 N         142.0715  141.2924  164.9387 N.am    1  UNL1       -0.1714
     27 C         142.1135  140.7024  166.3171 C.2     1  UNL1        0.2651
     28 O         142.3432  139.2310  166.4965 O.2     1  UNL1       -0.2685
     29 H         141.9208  142.2581  164.8209 H       1  UNL1        0.1779
     30 C         141.9256  141.5839  167.5163 C.ar    1  UNL1        0.0549
     31 C         140.6315  142.3163  167.7133 C.ar    1  UNL1        0.0046
     32 C         140.4437  143.1978  168.9124 C.ar    1  UNL1        0.0001
     33 C         141.5500  143.3468  169.9143 C.ar    1  UNL1        0.0000
     34 C         142.8441  142.6144  169.7172 C.ar    1  UNL1        0.0001
     35 C         143.0319  141.7329  168.5182 C.ar    1  UNL1        0.0046
@<TRIPOS>BOND
     1    14    15    1
     2    15    16   ar
     3    16    17    1
     4    16    18   ar
     5    18    19   ar
     6    19    20   ar
     7    20    13    1
     8    13     7    1
     9     7     8    1
    10     8     9    1
    11     9    10    1
    12    10     1    1
    13     1     2    1
    14     2     3    1
    15     3     4    1
    16     4    23    1
    17    23    24    2
    18    23    25    2
    19    23    26    1
    20    26    27   am
    21    27    28    2
    22    27    30    1
    23    30    31   ar
    24    31    32   ar
    25    32    33   ar
    26    33    34   ar
    27    34    35   ar
    28     4     5    1
    29     5     6    1
    30    10    11    1
    31    11    12    1
    32    20    21   ar
    33    21    22    1
    34    21    15   ar
    35    12     7    1
    36     6     1    1
    37    35    30   ar
    38    26    29    1
@<TRIPOS>MOLECULE
*****
 35 38 0 0 0
SMALL
GASTEIGER

@<TRIPOS>ATOM
      1 C         140.8507  143.7193  159.9124 C.3     1  UNL1        0.0604
      2 C         140.4559  142.2801  160.0634 C.3     1  UNL1        0.0352
      3 C         140.6305  141.5890  161.3833 C.3     1  UNL1        0.0985
      4 N         141.1998  142.3372  162.5520 N.3     1  UNL1       -0.1427
      5 C         141.5946  143.7764  162.4010 C.3     1  UNL1        0.0985
      6 C         141.4200  144.4675  161.0812 C.3     1  UNL1        0.0352
      7 C         140.3272  145.7926  155.9529 C.3     1  UNL1        0.1687
      8 C         141.4602  146.1779  156.8572 C.3     1  UNL1        0.0609
      9 C         141.6347  145.4868  158.1771 C.3     1  UNL1        0.0758
     10 N         140.6762  144.4104  158.5926 N.3     1  UNL1       -0.2736
     11 C         139.5432  144.0251  157.6882 C.3     1  UNL1        0.0758
     12 C         139.3686  144.7162  156.3684 C.3     1  UNL1        0.0609
     13 O         140.1526  146.4837  154.6331 O.3     1  UNL1       -0.4782
     14 C         140.1889  151.0941  152.2367 C.3     1  UNL1        0.0329
     15 C         139.7703  150.2339  153.3921 C.ar    1  UNL1        0.0023
     16 C         138.9514  150.8185  154.5045 C.ar    1  UNL1        0.0547
     17 CL        138.5510  152.2635  154.4616 Cl      1  UNL1       -0.0825
     18 C         138.5329  149.9582  155.6598 C.ar    1  UNL1        0.0142
     19 C         138.9333  148.5133  155.7027 C.ar    1  UNL1        0.0386
     20 C         139.7522  147.9287  154.5903 C.ar    1  UNL1        0.1485
     21 C         140.1707  148.7890  153.4350 C.ar    1  UNL1        0.0884
     22 CL        140.9897  148.2043  152.3225 Cl      1  UNL1       -0.0794
     23 S         141.3743  141.6461  163.8718 S.O2    1  UNL1        0.1153
     24 O         142.5249  142.5528  164.1945 O.2     1  UNL1       -0.1378
     25 O         140.2238  140.7394  163.5492 O.2     1  UNL1       -0.1378
     26 N         141.5489  140.9550  165.1917 N.am    1  UNL1       -0.1714
     27 C         140.8517  141.4805  166.4114 C.2     1  UNL1        0.2651
     28 O         139.9800  142.6971  166.3114 O.2     1  UNL1       -0.2685
     29 H         142.1211  140.1566  165.2574 H       1  UNL1        0.1779
     30 C         141.0263  140.7894  167.7313 C.ar    1  UNL1        0.0549
     31 C         142.2711  139.9983  168.0048 C.ar    1  UNL1        0.0046
     32 C         142.4457  139.3073  169.3246 C.ar    1  UNL1        0.0001
     33 C         141.3755  139.4073  170.3709 C.ar    1  UNL1        0.0000
     34 C         140.1308  140.1984  170.0974 C.ar    1  UNL1        0.0001
     35 C         139.9562  140.8895  168.7776 C.ar    1  UNL1        0.0046
@<TRIPOS>BOND
     1    14    15    1
     2    15    16   ar
     3    16    17    1
     4    16    18   ar
     5    18    19   ar
     6    19    20   ar
     7    20    13    1
     8    13     7    1
     9     7     8    1
    10     8     9    1
    11     9    10    1
    12    10     1    1
    13     1     2    1
    14     2     3    1
    15     3     4    1
    16     4    23    1
    17    23    24    2
    18    23    25    2
    19    23    26    1
    20    26    27   am
    21    27    28    2
    22    27    30    1
    23    30    31   ar
    24    31    32   ar
    25    32    33   ar
    26    33    34   ar
    27    34    35   ar
    28     4     5    1
    29     5     6    1
    30    10    11    1
    31    11    12    1
    32    20    21   ar
    33    21    22    1
    34    21    15   ar
    35    12     7    1
    36     6     1    1
    37    35    30   ar
    38    26    29    1
@<TRIPOS>MOLECULE
*****
 35 38 0 0 0
SMALL
GASTEIGER

@<TRIPOS>ATOM
      1 C         140.4341  142.7083  159.8569 C.3     1  UNL1        0.0604
      2 C         139.5193  142.5234  158.6826 C.3     1  UNL1        0.0352
      3 C         139.5057  143.5357  157.5757 C.3     1  UNL1        0.0985
      4 N         140.4070  144.7328  157.6431 N.3     1  UNL1       -0.1427
      5 C         141.3218  144.9177  158.8173 C.3     1  UNL1        0.0985
      6 C         141.3354  143.9055  159.9242 C.3     1  UNL1        0.0352
      7 C         140.4749  139.6716  163.1775 C.3     1  UNL1        0.1687
      8 C         139.1750  140.0787  162.5494 C.3     1  UNL1        0.0609
      9 C         139.1614  141.0909  161.4424 C.3     1  UNL1        0.0758
     10 N         140.4477  141.6961  160.9637 N.3     1  UNL1       -0.2736
     11 C         141.7476  141.2890  161.5919 C.3     1  UNL1        0.0758
     12 C         141.7612  140.2768  162.6988 C.3     1  UNL1        0.0609
     13 O         140.4885  138.6594  164.2844 O.3     1  UNL1       -0.4782
     14 C         142.1677  140.3399  168.9057 C.3     1  UNL1        0.0329
     15 C         141.0423  139.9258  168.0046 C.ar    1  UNL1        0.0023
     16 C         139.6312  139.9377  168.5130 C.ar    1  UNL1        0.0547
     17 CL        139.3453  140.3638  169.9226 Cl      1  UNL1       -0.0825
     18 C         138.5058  139.5235  167.6119 C.ar    1  UNL1        0.0142
     19 C         138.7915  139.0974  166.2024 C.ar    1  UNL1        0.0386
     20 C         140.2027  139.0855  165.6940 C.ar    1  UNL1        0.1485
     21 C         141.3280  139.4997  166.5951 C.ar    1  UNL1        0.0884
     22 CL        142.7392  139.4877  166.0866 Cl      1  UNL1       -0.0794
     23 S         140.3934  145.7450  156.5362 S.O2    1  UNL1        0.1153
     24 O         139.0699  145.2160  156.0687 O.2     1  UNL1       -0.1378
     25 O         141.7168  146.2740  157.0037 O.2     1  UNL1       -0.1378
     26 N         140.3797  146.7572  155.4293 N.am    1  UNL1       -0.1714
     27 C         139.5695  148.0117  155.5700 C.2     1  UNL1        0.2651
     28 O         138.7728  148.2539  156.8177 O.2     1  UNL1       -0.2685
     29 H         140.9026  146.5982  154.6104 H       1  UNL1        0.1779
     30 C         139.5558  149.0239  154.4631 C.ar    1  UNL1        0.0549
     31 C         139.9532  148.6214  153.0738 C.ar    1  UNL1        0.0046
     32 C         139.9396  149.6335  151.9669 C.ar    1  UNL1        0.0001
     33 C         139.5286  151.0482  152.2492 C.ar    1  UNL1        0.0000
     34 C         139.1312  151.4507  153.6385 C.ar    1  UNL1        0.0001
     35 C         139.1448  150.4385  154.7454 C.ar    1  UNL1        0.0046
@<TRIPOS>BOND
     1    14    15    1
     2    15    16   ar
     3    16    17    1
     4    16    18   ar
     5    18    19   ar
     6    19    20   ar
     7    20    13    1
     8    13     7    1
     9     7     8    1
    10     8     9    1
    11     9    10    1
    12    10     1    1
    13     1     2    1
    14     2     3    1
    15     3     4    1
    16     4    23    1
    17    23    24    2
    18    23    25    2
    19    23    26    1
    20    26    27   am
    21    27    28    2
    22    27    30    1
    23    30    31   ar
    24    31    32   ar
    25    32    33   ar
    26    33    34   ar
    27    34    35   ar
    28     4     5    1
    29     5     6    1
    30    10    11    1
    31    11    12    1
    32    20    21   ar
    33    21    22    1
    34    21    15   ar
    35    12     7    1
    36     6     1    1
    37    35    30   ar
    38    26    29    1
@<TRIPOS>MOLECULE
*****
 35 38 0 0 0
SMALL
GASTEIGER

@<TRIPOS>ATOM
      1 C         140.9189  138.7148  159.6559 C.3     1  UNL1        0.0604
      2 C         139.5452  138.4715  160.2070 C.3     1  UNL1        0.0352
      3 C         139.2065  138.9141  161.5996 C.3     1  UNL1        0.0985
      4 N         140.2415  139.6000  162.4412 N.3     1  UNL1       -0.1427
      5 C         141.6152  139.8434  161.8901 C.3     1  UNL1        0.0985
      6 C         141.9539  139.4008  160.4976 C.3     1  UNL1        0.0352
      7 C         141.9352  137.3871  155.4781 C.3     1  UNL1        0.1687
      8 C         143.0036  137.9530  156.3660 C.3     1  UNL1        0.0609
      9 C         142.6648  138.3956  157.7586 C.3     1  UNL1        0.0758
     10 N         141.2577  138.2722  158.2634 N.3     1  UNL1       -0.2736
     11 C         140.1893  137.7063  157.3755 C.3     1  UNL1        0.0758
     12 C         140.5281  137.2637  155.9829 C.3     1  UNL1        0.0609
     13 O         142.2740  136.9445  154.0855 O.3     1  UNL1       -0.4782
     14 C         142.9977  131.8077  154.3851 C.3     1  UNL1        0.0329
     15 C         142.2916  132.9873  153.7851 C.ar    1  UNL1        0.0023
     16 C         141.2412  132.7780  152.7350 C.ar    1  UNL1        0.0547
     17 CL        140.8969  131.3892  152.2847 Cl      1  UNL1       -0.0825
     18 C         140.5350  133.9576  152.1350 C.ar    1  UNL1        0.0142
     19 C         140.8793  135.3464  152.5852 C.ar    1  UNL1        0.0386
     20 C         141.9297  135.5556  153.6353 C.ar    1  UNL1        0.1485
     21 C         142.6358  134.3761  154.2353 C.ar    1  UNL1        0.0884
     22 CL        143.6863  134.5853  155.2855 Cl      1  UNL1       -0.0794
     23 S         139.9027  140.0426  163.8338 S.O2    1  UNL1        0.1153
     24 O         139.9312  138.6154  164.2943 O.2     1  UNL1       -0.1378
     25 O         139.8742  141.4698  163.3732 O.2     1  UNL1       -0.1378
     26 N         139.5639  140.4852  165.2264 N.am    1  UNL1       -0.1714
     27 C         140.6594  140.8337  166.1900 C.2     1  UNL1        0.2651
     28 O         142.0937  140.7397  165.7609 O.2     1  UNL1       -0.2685
     29 H         138.6226  140.5469  165.5080 H       1  UNL1        0.1779
     30 C         140.3206  141.2762  167.5826 C.ar    1  UNL1        0.0549
     31 C         140.6644  142.6652  168.0327 C.ar    1  UNL1        0.0046
     32 C         140.3257  143.1078  169.4253 C.ar    1  UNL1        0.0001
     33 C         139.6432  142.1614  170.3678 C.ar    1  UNL1        0.0000
     34 C         139.2994  140.7724  169.9178 C.ar    1  UNL1        0.0001
     35 C         139.6381  140.3298  168.5252 C.ar    1  UNL1        0.0046
@<TRIPOS>BOND
     1    14    15    1
     2    15    16   ar
     3    16    17    1
     4    16    18   ar
     5    18    19   ar
     6    19    20   ar
     7    20    13    1
     8    13     7    1
     9     7     8    1
    10     8     9    1
    11     9    10    1
    12    10     1    1
    13     1     2    1
    14     2     3    1
    15     3     4    1
    16     4    23    1
    17    23    24    2
    18    23    25    2
    19    23    26    1
    20    26    27   am
    21    27    28    2
    22    27    30    1
    23    30    31   ar
    24    31    32   ar
    25    32    33   ar
    26    33    34   ar
    27    34    35   ar
    28     4     5    1
    29     5     6    1
    30    10    11    1
    31    11    12    1
    32    20    21   ar
    33    21    22    1
    34    21    15   ar
    35    12     7    1
    36     6     1    1
    37    35    30   ar
    38    26    29    1
@<TRIPOS>MOLECULE
*****
 35 38 0 0 0
SMALL
GASTEIGER

@<TRIPOS>ATOM
      1 C         141.4161  144.2717  159.8778 C.3     1  UNL1        0.0604
      2 C         142.5875  143.3811  160.1691 C.3     1  UNL1        0.0352
      3 C         142.9142  143.0109  161.5855 C.3     1  UNL1        0.0985
      4 N         142.0696  143.5312  162.7106 N.3     1  UNL1       -0.1427
      5 C         140.8982  144.4217  162.4193 C.3     1  UNL1        0.0985
      6 C         140.5714  144.7919  161.0029 C.3     1  UNL1        0.0352
      7 C         140.4359  145.3824  155.6286 C.3     1  UNL1        0.1687
      8 C         141.6840  145.9091  156.2727 C.3     1  UNL1        0.0609
      9 C         142.0107  145.5388  157.6891 C.3     1  UNL1        0.0758
     10 N         141.0894  144.6419  158.4614 N.3     1  UNL1       -0.2736
     11 C         139.8413  144.1152  157.8174 C.3     1  UNL1        0.0758
     12 C         139.5146  144.4854  156.4010 C.3     1  UNL1        0.0609
     13 O         140.1092  145.7526  154.2122 O.3     1  UNL1       -0.4782
     14 C         139.7869  150.9387  154.1873 C.3     1  UNL1        0.0329
     15 C         140.3849  149.6718  153.6514 C.ar    1  UNL1        0.0023
     16 C         141.4196  149.7309  152.5671 C.ar    1  UNL1        0.0547
     17 CL        141.8564  151.0570  152.0186 Cl      1  UNL1       -0.0825
     18 C         142.0175  148.4639  152.0311 C.ar    1  UNL1        0.0142
     19 C         141.5808  147.1378  152.5795 C.ar    1  UNL1        0.0386
     20 C         140.5460  147.0788  153.6638 C.ar    1  UNL1        0.1485
     21 C         139.9481  148.3457  154.1998 C.ar    1  UNL1        0.0884
     22 CL        138.9133  148.2866  155.2841 Cl      1  UNL1       -0.0794
     23 S         142.3963  143.1609  164.1269 S.O2    1  UNL1        0.1153
     24 O         143.5472  142.3290  163.6440 O.2     1  UNL1       -0.1378
     25 O         141.2454  143.9929  164.6099 O.2     1  UNL1       -0.1378
     26 N         142.7231  142.7907  165.5434 N.am    1  UNL1       -0.1714
     27 C         142.1328  141.5524  166.1501 C.2     1  UNL1        0.2651
     28 O         141.2157  140.6843  165.3405 O.2     1  UNL1       -0.2685
     29 H         143.3250  143.3604  166.0747 H       1  UNL1        0.1779
     30 C         142.4596  141.1821  167.5665 C.ar    1  UNL1        0.0549
     31 C         142.1317  139.8106  168.0779 C.ar    1  UNL1        0.0046
     32 C         142.4584  139.4403  169.4942 C.ar    1  UNL1        0.0001
     33 C         143.1131  140.4415  170.3992 C.ar    1  UNL1        0.0000
     34 C         143.4410  141.8130  169.8879 C.ar    1  UNL1        0.0001
     35 C         143.1142  142.1833  168.4715 C.ar    1  UNL1        0.0046
@<TRIPOS>BOND
     1    14    15    1
     2    15    16   ar
     3    16    17    1
     4    16    18   ar
     5    18    19   ar
     6    19    20   ar
     7    20    13    1
     8    13     7    1
     9     7     8    1
    10     8     9    1
    11     9    10    1
    12    10     1    1
    13     1     2    1
    14     2     3    1
    15     3     4    1
    16     4    23    1
    17    23    24    2
    18    23    25    2
    19    23    26    1
    20    26    27   am
    21    27    28    2
    22    27    30    1
    23    30    31   ar
    24    31    32   ar
    25    32    33   ar
    26    33    34   ar
    27    34    35   ar
    28     4     5    1
    29     5     6    1
    30    10    11    1
    31    11    12    1
    32    20    21   ar
    33    21    22    1
    34    21    15   ar
    35    12     7    1
    36     6     1    1
    37    35    30   ar
    38    26    29    1
@<TRIPOS>MOLECULE
*****
 35 38 0 0 0
SMALL
GASTEIGER

@<TRIPOS>ATOM
      1 C         140.6376  140.2257  154.1668 C.3     1  UNL1        0.0604
      2 C         141.7736  141.1560  154.4733 C.3     1  UNL1        0.0352
      3 C         141.5744  142.6398  154.3788 C.3     1  UNL1        0.0985
      4 N         140.2391  143.1931  153.9778 N.3     1  UNL1       -0.1427
      5 C         139.1031  142.2628  153.6713 C.3     1  UNL1        0.0985
      6 C         139.3023  140.7791  153.7658 C.3     1  UNL1        0.0352
      7 C         141.2353  135.7746  154.4504 C.3     1  UNL1        0.1687
      8 C         140.0767  136.4218  155.1495 C.3     1  UNL1        0.0609
      9 C         139.8775  137.9055  155.0549 C.3     1  UNL1        0.0758
     10 N         140.8369  138.7420  154.2613 N.3     1  UNL1       -0.2736
     11 C         141.9955  138.0948  153.5622 C.3     1  UNL1        0.0758
     12 C         142.1947  136.6111  153.6567 C.3     1  UNL1        0.0609
     13 O         141.4345  134.2909  154.5448 O.3     1  UNL1       -0.4782
     14 C         144.9569  130.6357  155.6550 C.3     1  UNL1        0.0329
     15 C         144.2426  131.9040  156.0171 C.ar    1  UNL1        0.0023
     16 C         144.5752  132.6131  157.2964 C.ar    1  UNL1        0.0547
     17 CL        145.6221  132.0538  158.2137 Cl      1  UNL1       -0.0825
     18 C         143.8608  133.8814  157.6586 C.ar    1  UNL1        0.0142
     19 C         142.8140  134.4407  156.7414 C.ar    1  UNL1        0.0386
     20 C         142.4814  133.7316  155.4621 C.ar    1  UNL1        0.1485
     21 C         143.1958  132.4633  155.1000 C.ar    1  UNL1        0.0884
     22 CL        142.8632  131.7543  153.8206 Cl      1  UNL1       -0.0794
     23 S         140.0399  144.6768  153.8833 S.O2    1  UNL1        0.1153
     24 O         141.5204  144.8834  154.0065 O.2     1  UNL1       -0.1378
     25 O         138.5593  144.4701  153.7602 O.2     1  UNL1       -0.1378
     26 N         139.8407  146.1605  153.7889 N.am    1  UNL1       -0.1714
     27 C         139.5203  146.9542  155.0207 C.2     1  UNL1        0.2651
     28 O         139.3990  146.2642  156.3470 O.2     1  UNL1       -0.2685
     29 H         139.9202  146.6134  152.9183 H       1  UNL1        0.1779
     30 C         139.3211  148.4380  154.9262 C.ar    1  UNL1        0.0549
     31 C         139.8288  149.1882  153.7306 C.ar    1  UNL1        0.0046
     32 C         139.6296  150.6719  153.6360 C.ar    1  UNL1        0.0001
     33 C         138.9228  151.4053  154.7371 C.ar    1  UNL1        0.0000
     34 C         138.4151  150.6551  155.9327 C.ar    1  UNL1        0.0001
     35 C         138.6142  149.1714  156.0272 C.ar    1  UNL1        0.0046
@<TRIPOS>BOND
     1    14    15    1
     2    15    16   ar
     3    16    17    1
     4    16    18   ar
     5    18    19   ar
     6    19    20   ar
     7    20    13    1
     8    13     7    1
     9     7     8    1
    10     8     9    1
    11     9    10    1
    12    10     1    1
    13     1     2    1
    14     2     3    1
    15     3     4    1
    16     4    23    1
    17    23    24    2
    18    23    25    2
    19    23    26    1
    20    26    27   am
    21    27    28    2
    22    27    30    1
    23    30    31   ar
    24    31    32   ar
    25    32    33   ar
    26    33    34   ar
    27    34    35   ar
    28     4     5    1
    29     5     6    1
    30    10    11    1
    31    11    12    1
    32    20    21   ar
    33    21    22    1
    34    21    15   ar
    35    12     7    1
    36     6     1    1
    37    35    30   ar
    38    26    29    1
@<TRIPOS>MOLECULE
*****
 35 38 0 0 0
SMALL
GASTEIGER

@<TRIPOS>ATOM
      1 C         142.7022  143.0233  159.6671 C.3     1  UNL1        0.0604
      2 C         141.4781  143.7941  160.0638 C.3     1  UNL1        0.0352
      3 C         141.0370  143.8152  161.4974 C.3     1  UNL1        0.0985
      4 N         141.8199  143.0655  162.5341 N.3     1  UNL1       -0.1427
      5 C         143.0440  142.2946  162.1374 C.3     1  UNL1        0.0985
      6 C         143.4852  142.2735  160.7039 C.3     1  UNL1        0.0352
      7 C         144.0257  142.9599  155.3666 C.3     1  UNL1        0.1687
      8 C         144.8436  142.2632  156.4134 C.3     1  UNL1        0.0609
      9 C         144.4024  142.2844  157.8469 C.3     1  UNL1        0.0758
     10 N         143.1434  143.0021  158.2336 N.3     1  UNL1       -0.2736
     11 C         142.3255  143.6988  157.1868 C.3     1  UNL1        0.0758
     12 C         142.7666  143.6777  155.7534 C.3     1  UNL1        0.0609
     13 O         144.4669  142.9388  153.9331 O.3     1  UNL1       -0.4782
     14 C         148.9762  140.9728  152.2593 C.3     1  UNL1        0.0329
     15 C         148.1708  142.1373  152.7548 C.ar    1  UNL1        0.0023
     16 C         148.8148  143.4832  152.9088 C.ar    1  UNL1        0.0547
     17 CL        150.2641  143.6647  152.5673 Cl      1  UNL1       -0.0825
     18 C         148.0095  144.6477  153.4042 C.ar    1  UNL1        0.0142
     19 C         146.5602  144.4662  153.7456 C.ar    1  UNL1        0.0386
     20 C         145.9162  143.1203  153.5917 C.ar    1  UNL1        0.1485
     21 C         146.7216  141.9558  153.0962 C.ar    1  UNL1        0.0884
     22 CL        146.0775  140.6098  152.9423 Cl      1  UNL1       -0.0794
     23 S         141.3788  143.0866  163.9676 S.O2    1  UNL1        0.1153
     24 O         139.9548  142.9065  163.5320 O.2     1  UNL1       -0.1378
     25 O         142.8028  143.2666  164.4032 O.2     1  UNL1       -0.1378
     26 N         140.9375  143.1077  165.4011 N.am    1  UNL1       -0.1714
     27 C         140.8871  141.8324  166.1892 C.2     1  UNL1        0.2651
     28 O         141.2779  140.5360  165.5438 O.2     1  UNL1       -0.2685
     29 H         140.6811  143.9586  165.8247 H       1  UNL1        0.1779
     30 C         140.4459  141.8535  167.6227 C.ar    1  UNL1        0.0549
     31 C         139.8096  140.6382  168.2296 C.ar    1  UNL1        0.0046
     32 C         139.3684  140.6593  169.6630 C.ar    1  UNL1        0.0001
     33 C         139.5635  141.8957  170.4896 C.ar    1  UNL1        0.0000
     34 C         140.1998  143.1109  169.8828 C.ar    1  UNL1        0.0001
     35 C         140.6410  143.0899  168.4494 C.ar    1  UNL1        0.0046
@<TRIPOS>BOND
     1    14    15    1
     2    15    16   ar
     3    16    17    1
     4    16    18   ar
     5    18    19   ar
     6    19    20   ar
     7    20    13    1
     8    13     7    1
     9     7     8    1
    10     8     9    1
    11     9    10    1
    12    10     1    1
    13     1     2    1
    14     2     3    1
    15     3     4    1
    16     4    23    1
    17    23    24    2
    18    23    25    2
    19    23    26    1
    20    26    27   am
    21    27    28    2
    22    27    30    1
    23    30    31   ar
    24    31    32   ar
    25    32    33   ar
    26    33    34   ar
    27    34    35   ar
    28     4     5    1
    29     5     6    1
    30    10    11    1
    31    11    12    1
    32    20    21   ar
    33    21    22    1
    34    21    15   ar
    35    12     7    1
    36     6     1    1
    37    35    30   ar
    38    26    29    1
