@<TRIPOS>MOLECULE
*****
 23 25 0 0 0
SMALL
GASTEIGER

@<TRIPOS>ATOM
      1 O         142.4924  139.4030  167.4564 O.2     1  UNL1       -0.2695
      2 C         141.5519  139.6897  166.3235 C.2     1  UNL1        0.2536
      3 N         140.4112  140.6439  166.5189 N.am    1  UNL1       -0.2554
      4 C         141.7522  139.0221  164.9953 C.ar    1  UNL1        0.0653
      5 C         140.9409  137.8134  164.6334 C.ar    1  UNL1        0.0054
      6 C         141.1412  137.1459  163.3051 C.ar    1  UNL1        0.0011
      7 C         142.1528  137.6869  162.3388 C.ar    1  UNL1        0.0123
      8 C         142.9641  138.8956  162.7006 C.ar    1  UNL1        0.0683
      9 CL        143.9757  139.4367  161.7343 Cl      1  UNL1       -0.0814
     10 C         142.7638  139.5632  164.0289 C.ar    1  UNL1        0.0726
     11 CL        143.5751  140.7718  164.3907 Cl      1  UNL1       -0.0812
     12 C         140.2108  141.3114  167.8471 C.ar    1  UNL1        0.0541
     13 C         140.6699  142.7245  168.0531 C.ar    1  UNL1        0.0149
     14 C         140.4695  143.3921  169.3814 C.ar    1  UNL1        0.0013
     15 C         139.8102  142.6466  170.5036 C.ar    1  UNL1        0.0001
     16 C         139.3512  141.2334  170.2976 C.ar    1  UNL1        0.0013
     17 C         139.5515  140.5658  168.9694 C.ar    1  UNL1        0.0149
     18 C         139.4707  140.9305  165.3860 C.3     1  UNL1        0.0971
     19 C         139.6732  141.9555  164.3098 C.3     1  UNL1        0.0387
     20 C         138.4903  141.9010  163.3891 C.3     1  UNL1        0.0704
     21 N         137.5565  140.8422  163.8963 N.3     1  UNL1       -0.2960
     22 C         138.1625  140.2424  165.1305 C.3     1  UNL1        0.0890
     23 H         137.4325  140.1208  163.1859 H       1  UNL1        0.1233
@<TRIPOS>BOND
     1     1     2    2
     2     2     4    1
     3     4     5   ar
     4     5     6   ar
     5     6     7   ar
     6     7     8   ar
     7     8     9    1
     8     8    10   ar
     9    10    11    1
    10     2     3   am
    11     3    12    1
    12    12    13   ar
    13    13    14   ar
    14    14    15   ar
    15    15    16   ar
    16    16    17   ar
    17    18     3    1
    18    18    19    1
    19    19    20    1
    20    20    21    1
    21    21    22    1
    22    10     4   ar
    23    17    12   ar
    24    22    18    1
    25    21    23    1
@<TRIPOS>MOLECULE
*****
 23 25 0 0 0
SMALL
GASTEIGER

@<TRIPOS>ATOM
      1 O         139.3786  140.0943  167.4833 O.2     1  UNL1       -0.2695
      2 C         139.7523  140.8642  166.2513 C.2     1  UNL1        0.2536
      3 N         140.7471  141.9833  166.3393 N.am    1  UNL1       -0.2554
      4 C         139.1310  140.5150  164.9314 C.ar    1  UNL1        0.0653
      5 C         138.0114  141.3504  164.3851 C.ar    1  UNL1        0.0054
      6 C         137.3901  141.0012  163.0652 C.ar    1  UNL1        0.0011
      7 C         137.8884  139.8167  162.2917 C.ar    1  UNL1        0.0123
      8 C         139.0081  138.9812  162.8380 C.ar    1  UNL1        0.0683
      9 CL        139.5064  137.7966  162.0645 Cl      1  UNL1       -0.0814
     10 C         139.6294  139.3304  164.1579 C.ar    1  UNL1        0.0726
     11 CL        140.7490  138.4950  164.7043 Cl      1  UNL1       -0.0812
     12 C         141.3684  142.3325  167.6592 C.ar    1  UNL1        0.0541
     13 C         140.5667  143.0622  168.6958 C.ar    1  UNL1        0.0149
     14 C         141.1880  143.4114  170.0157 C.ar    1  UNL1        0.0013
     15 C         142.6110  143.0309  170.2989 C.ar    1  UNL1        0.0001
     16 C         143.4128  142.3011  169.2622 C.ar    1  UNL1        0.0013
     17 C         142.7915  141.9519  167.9423 C.ar    1  UNL1        0.0149
     18 C         141.1208  142.7533  165.1074 C.3     1  UNL1        0.0971
     19 C         140.5210  144.0552  164.6656 C.3     1  UNL1        0.0387
     20 C         141.1893  144.4631  163.3861 C.3     1  UNL1        0.0704
     21 N         142.2023  143.4131  163.0372 N.3     1  UNL1       -0.2960
     22 C         142.1599  142.3564  164.1010 C.3     1  UNL1        0.0890
     23 H         143.1329  143.8290  162.9992 H       1  UNL1        0.1233
@<TRIPOS>BOND
     1     1     2    2
     2     2     4    1
     3     4     5   ar
     4     5     6   ar
     5     6     7   ar
     6     7     8   ar
     7     8     9    1
     8     8    10   ar
     9    10    11    1
    10     2     3   am
    11     3    12    1
    12    12    13   ar
    13    13    14   ar
    14    14    15   ar
    15    15    16   ar
    16    16    17   ar
    17    18     3    1
    18    18    19    1
    19    19    20    1
    20    20    21    1
    21    21    22    1
    22    10     4   ar
    23    17    12   ar
    24    22    18    1
    25    21    23    1
@<TRIPOS>MOLECULE
*****
 23 25 0 0 0
SMALL
GASTEIGER

@<TRIPOS>ATOM
      1 O         138.4505  139.1644  167.7395 O.2     1  UNL1       -0.2695
      2 C         139.4074  139.4767  166.6273 C.2     1  UNL1        0.2536
      3 N         140.7417  140.0886  166.9357 N.am    1  UNL1       -0.2554
      4 C         139.0299  139.1772  165.2069 C.ar    1  UNL1        0.0653
      5 C         139.2530  137.8044  164.6450 C.ar    1  UNL1        0.0054
      6 C         138.8755  137.5049  163.2246 C.ar    1  UNL1        0.0011
      7 C         138.2749  138.5782  162.3659 C.ar    1  UNL1        0.0123
      8 C         138.0517  139.9510  162.9277 C.ar    1  UNL1        0.0683
      9 CL        137.4511  141.0242  162.0690 Cl      1  UNL1       -0.0814
     10 C         138.4292  140.2505  164.3482 C.ar    1  UNL1        0.0726
     11 CL        138.2061  141.6233  164.9100 Cl      1  UNL1       -0.0812
     12 C         141.1192  140.3881  168.3562 C.ar    1  UNL1        0.0541
     13 C         142.2094  139.6035  169.0239 C.ar    1  UNL1        0.0149
     14 C         142.5869  139.9030  170.4444 C.ar    1  UNL1        0.0013
     15 C         141.8743  140.9872  171.1972 C.ar    1  UNL1        0.0001
     16 C         140.7840  141.7718  170.5295 C.ar    1  UNL1        0.0013
     17 C         140.4065  141.4723  169.1090 C.ar    1  UNL1        0.0149
     18 C         141.6987  140.4009  165.8235 C.3     1  UNL1        0.0971
     19 C         142.6894  139.4502  165.2198 C.3     1  UNL1        0.0387
     20 C         143.4359  140.1805  164.1431 C.3     1  UNL1        0.0704
     21 N         142.9064  141.5827  164.0813 N.3     1  UNL1       -0.2960
     22 C         141.8327  141.7189  165.1200 C.3     1  UNL1        0.0890
     23 H         142.5181  141.7656  163.1560 H       1  UNL1        0.1233
@<TRIPOS>BOND
     1     1     2    2
     2     2     4    1
     3     4     5   ar
     4     5     6   ar
     5     6     7   ar
     6     7     8   ar
     7     8     9    1
     8     8    10   ar
     9    10    11    1
    10     2     3   am
    11     3    12    1
    12    12    13   ar
    13    13    14   ar
    14    14    15   ar
    15    15    16   ar
    16    16    17   ar
    17    18     3    1
    18    18    19    1
    19    19    20    1
    20    20    21    1
    21    21    22    1
    22    10     4   ar
    23    17    12   ar
    24    22    18    1
    25    21    23    1
@<TRIPOS>MOLECULE
*****
 23 25 0 0 0
SMALL
GASTEIGER

@<TRIPOS>ATOM
      1 O         139.7586  139.5406  167.7866 O.2     1  UNL1       -0.2695
      2 C         140.4753  139.9423  166.5316 C.2     1  UNL1        0.2536
      3 N         141.4063  141.1183  166.5432 N.am    1  UNL1       -0.2554
      4 C         140.2609  139.1679  165.2649 C.ar    1  UNL1        0.0653
      5 C         141.1726  138.0280  164.9193 C.ar    1  UNL1        0.0054
      6 C         140.9582  137.2537  163.6527 C.ar    1  UNL1        0.0011
      7 C         139.8321  137.6191  162.7316 C.ar    1  UNL1        0.0123
      8 C         138.9203  138.7591  163.0773 C.ar    1  UNL1        0.0683
      9 CL        137.7942  139.1246  162.1563 Cl      1  UNL1       -0.0814
     10 C         139.1347  139.5334  164.3439 C.ar    1  UNL1        0.0726
     11 CL        138.2231  140.6733  164.6895 Cl      1  UNL1       -0.0812
     12 C         141.6207  141.8926  167.8098 C.ar    1  UNL1        0.0541
     13 C         140.5386  142.7904  168.3323 C.ar    1  UNL1        0.0149
     14 C         140.7530  143.5648  169.5989 C.ar    1  UNL1        0.0013
     15 C         142.0495  143.4414  170.3431 C.ar    1  UNL1        0.0001
     16 C         143.1317  142.5436  169.8206 C.ar    1  UNL1        0.0013
     17 C         142.9173  141.7692  168.5540 C.ar    1  UNL1        0.0149
     18 C         142.1230  141.5200  165.2881 C.3     1  UNL1        0.0971
     19 C         143.4837  141.0542  164.8622 C.3     1  UNL1        0.0387
     20 C         143.8064  141.7043  163.5495 C.3     1  UNL1        0.0704
     21 N         142.6450  142.5720  163.1641 N.3     1  UNL1       -0.2960
     22 C         141.6045  142.4580  164.2387 C.3     1  UNL1        0.0890
     23 H         142.2589  142.2580  162.2737 H       1  UNL1        0.1233
@<TRIPOS>BOND
     1     1     2    2
     2     2     4    1
     3     4     5   ar
     4     5     6   ar
     5     6     7   ar
     6     7     8   ar
     7     8     9    1
     8     8    10   ar
     9    10    11    1
    10     2     3   am
    11     3    12    1
    12    12    13   ar
    13    13    14   ar
    14    14    15   ar
    15    15    16   ar
    16    16    17   ar
    17    18     3    1
    18    18    19    1
    19    19    20    1
    20    20    21    1
    21    21    22    1
    22    10     4   ar
    23    17    12   ar
    24    22    18    1
    25    21    23    1
@<TRIPOS>MOLECULE
*****
 23 25 0 0 0
SMALL
GASTEIGER

@<TRIPOS>ATOM
      1 O         143.4646  138.5292  167.4655 O.2     1  UNL1       -0.2695
      2 C         142.4985  139.1766  166.5181 C.2     1  UNL1        0.2536
      3 N         141.6740  140.3453  166.9701 N.am    1  UNL1       -0.2554
      4 C         142.3569  138.6553  165.1188 C.ar    1  UNL1        0.0653
      5 C         141.2578  137.6905  164.7855 C.ar    1  UNL1        0.0054
      6 C         141.1163  137.1692  163.3861 C.ar    1  UNL1        0.0011
      7 C         142.0738  137.6127  162.3201 C.ar    1  UNL1        0.0123
      8 C         143.1729  138.5775  162.6534 C.ar    1  UNL1        0.0683
      9 CL        144.1304  139.0210  161.5873 Cl      1  UNL1       -0.0814
     10 C         143.3145  139.0989  164.0527 C.ar    1  UNL1        0.0726
     11 CL        144.4136  140.0637  164.3860 Cl      1  UNL1       -0.0812
     12 C         141.8156  140.8666  168.3695 C.ar    1  UNL1        0.0541
     13 C         141.0376  140.2370  169.4867 C.ar    1  UNL1        0.0149
     14 C         141.1792  140.7583  170.8860 C.ar    1  UNL1        0.0013
     15 C         142.0988  141.9093  171.1682 C.ar    1  UNL1        0.0001
     16 C         142.8768  142.5390  170.0509 C.ar    1  UNL1        0.0013
     17 C         142.7352  142.0177  168.6515 C.ar    1  UNL1        0.0149
     18 C         140.7079  140.9928  166.0227 C.3     1  UNL1        0.0971
     19 C         139.2466  140.6770  165.9010 C.3     1  UNL1        0.0387
     20 C         138.6691  141.5587  164.8338 C.3     1  UNL1        0.0704
     21 N         139.7735  142.4196  164.2959 N.3     1  UNL1       -0.2960
     22 C         141.0336  142.0698  165.0307 C.3     1  UNL1        0.0890
     23 H         139.5486  143.4035  164.4433 H       1  UNL1        0.1233
@<TRIPOS>BOND
     1     1     2    2
     2     2     4    1
     3     4     5   ar
     4     5     6   ar
     5     6     7   ar
     6     7     8   ar
     7     8     9    1
     8     8    10   ar
     9    10    11    1
    10     2     3   am
    11     3    12    1
    12    12    13   ar
    13    13    14   ar
    14    14    15   ar
    15    15    16   ar
    16    16    17   ar
    17    18     3    1
    18    18    19    1
    19    19    20    1
    20    20    21    1
    21    21    22    1
    22    10     4   ar
    23    17    12   ar
    24    22    18    1
    25    21    23    1
@<TRIPOS>MOLECULE
*****
 23 25 0 0 0
SMALL
GASTEIGER

@<TRIPOS>ATOM
      1 O         143.4053  141.9624  167.0247 O.2     1  UNL1       -0.2695
      2 C         142.4624  142.4381  165.9595 C.2     1  UNL1        0.2536
      3 N         140.9913  142.5184  166.2414 N.am    1  UNL1       -0.2554
      4 C         142.9905  142.8333  164.6123 C.ar    1  UNL1        0.0653
      5 C         143.4208  144.2481  164.3610 C.ar    1  UNL1        0.0054
      6 C         143.9490  144.6433  163.0138 C.ar    1  UNL1        0.0011
      7 C         144.0468  143.6238  161.9180 C.ar    1  UNL1        0.0123
      8 C         143.6165  142.2089  162.1693 C.ar    1  UNL1        0.0683
      9 CL        143.7144  141.1894  161.0734 Cl      1  UNL1       -0.0814
     10 C         143.0884  141.8137  163.5164 C.ar    1  UNL1        0.0726
     11 CL        142.6581  140.3989  163.7677 Cl      1  UNL1       -0.0812
     12 C         140.4632  142.1232  167.5886 C.ar    1  UNL1        0.0541
     13 C         139.9013  140.7486  167.8001 C.ar    1  UNL1        0.0149
     14 C         139.3731  140.3534  169.1472 C.ar    1  UNL1        0.0013
     15 C         139.4069  141.3327  170.2829 C.ar    1  UNL1        0.0001
     16 C         139.9688  142.7073  170.0714 C.ar    1  UNL1        0.0013
     17 C         140.4969  143.1026  168.7242 C.ar    1  UNL1        0.0149
     18 C         140.0484  142.9940  165.1762 C.3     1  UNL1        0.0971
     19 C         139.6107  144.4116  164.9549 C.3     1  UNL1        0.0387
     20 C         138.6694  144.4292  163.7872 C.3     1  UNL1        0.0704
     21 N         138.5252  143.0225  163.2867 N.3     1  UNL1       -0.2960
     22 C         139.3775  142.1354  164.1452 C.3     1  UNL1        0.0890
     23 H         138.8352  142.9667  162.3166 H       1  UNL1        0.1233
@<TRIPOS>BOND
     1     1     2    2
     2     2     4    1
     3     4     5   ar
     4     5     6   ar
     5     6     7   ar
     6     7     8   ar
     7     8     9    1
     8     8    10   ar
     9    10    11    1
    10     2     3   am
    11     3    12    1
    12    12    13   ar
    13    13    14   ar
    14    14    15   ar
    15    15    16   ar
    16    16    17   ar
    17    18     3    1
    18    18    19    1
    19    19    20    1
    20    20    21    1
    21    21    22    1
    22    10     4   ar
    23    17    12   ar
    24    22    18    1
    25    21    23    1
@<TRIPOS>MOLECULE
*****
 23 25 0 0 0
SMALL
GASTEIGER

@<TRIPOS>ATOM
      1 O         138.4844  139.2294  167.6164 O.2     1  UNL1       -0.2695
      2 C         139.2357  140.0112  166.5799 C.2     1  UNL1        0.2536
      3 N         140.4718  140.7699  166.9626 N.am    1  UNL1       -0.2554
      4 C         138.7509  140.0344  165.1606 C.ar    1  UNL1        0.0653
      5 C         137.9461  141.1977  164.6618 C.ar    1  UNL1        0.0054
      6 C         137.4613  141.2209  163.2425 C.ar    1  UNL1        0.0011
      7 C         137.7812  140.0806  162.3220 C.ar    1  UNL1        0.0123
      8 C         138.5861  138.9172  162.8207 C.ar    1  UNL1        0.0683
      9 CL        138.9060  137.7769  161.9002 Cl      1  UNL1       -0.0814
     10 C         139.0709  138.8940  164.2400 C.ar    1  UNL1        0.0726
     11 CL        139.8757  137.7307  164.7388 Cl      1  UNL1       -0.0812
     12 C         140.9566  140.7467  168.3819 C.ar    1  UNL1        0.0541
     13 C         142.0535  139.8062  168.7845 C.ar    1  UNL1        0.0149
     14 C         142.5384  139.7831  170.2038 C.ar    1  UNL1        0.0013
     15 C         141.9263  140.7005  171.2205 C.ar    1  UNL1        0.0001
     16 C         140.8293  141.6411  170.8179 C.ar    1  UNL1        0.0013
     17 C         140.3445  141.6642  169.3986 C.ar    1  UNL1        0.0149
     18 C         141.2231  141.5517  165.9261 C.3     1  UNL1        0.0971
     19 C         141.0357  143.0063  165.6115 C.3     1  UNL1        0.0387
     20 C         141.9905  143.3698  164.5132 C.3     1  UNL1        0.0704
     21 N         142.7680  142.1397  164.1489 N.3     1  UNL1       -0.2960
     22 C         142.2936  141.0161  165.0222 C.3     1  UNL1        0.0890
     23 H         143.7633  142.3012  164.3027 H       1  UNL1        0.1233
@<TRIPOS>BOND
     1     1     2    2
     2     2     4    1
     3     4     5   ar
     4     5     6   ar
     5     6     7   ar
     6     7     8   ar
     7     8     9    1
     8     8    10   ar
     9    10    11    1
    10     2     3   am
    11     3    12    1
    12    12    13   ar
    13    13    14   ar
    14    14    15   ar
    15    15    16   ar
    16    16    17   ar
    17    18     3    1
    18    18    19    1
    19    19    20    1
    20    20    21    1
    21    21    22    1
    22    10     4   ar
    23    17    12   ar
    24    22    18    1
    25    21    23    1
@<TRIPOS>MOLECULE
*****
 23 25 0 0 0
SMALL
GASTEIGER

@<TRIPOS>ATOM
      1 O         143.4787  142.6395  167.2270 O.2     1  UNL1       -0.2695
      2 C         143.1008  141.7543  166.0764 C.2     1  UNL1        0.2536
      3 N         142.1785  140.5919  166.2959 N.am    1  UNL1       -0.2554
      4 C         143.6452  142.0316  164.7065 C.ar    1  UNL1        0.0653
      5 C         144.9648  141.4511  164.2922 C.ar    1  UNL1        0.0054
      6 C         145.5093  141.7284  162.9223 C.ar    1  UNL1        0.0011
      7 C         144.7341  142.5861  161.9666 C.ar    1  UNL1        0.0123
      8 C         143.4144  143.1666  162.3809 C.ar    1  UNL1        0.0683
      9 CL        142.6392  144.0243  161.4252 Cl      1  UNL1       -0.0814
     10 C         142.8700  142.8893  163.7508 C.ar    1  UNL1        0.0726
     11 CL        141.5504  143.4698  164.1651 Cl      1  UNL1       -0.0812
     12 C         141.6341  140.3147  167.6658 C.ar    1  UNL1        0.0541
     13 C         140.2478  140.7599  168.0262 C.ar    1  UNL1        0.0149
     14 C         139.7034  140.4827  169.3962 C.ar    1  UNL1        0.0013
     15 C         140.5453  139.7601  170.4057 C.ar    1  UNL1        0.0001
     16 C         141.9316  139.3149  170.0453 C.ar    1  UNL1        0.0013
     17 C         142.4761  139.5921  168.6754 C.ar    1  UNL1        0.0149
     18 C         141.8006  139.7067  165.1453 C.3     1  UNL1        0.0971
     19 C         142.5283  138.4700  164.7083 C.3     1  UNL1        0.0387
     20 C         141.8061  137.9018  163.5227 C.3     1  UNL1        0.0704
     21 N         140.6320  138.7874  163.2270 N.3     1  UNL1       -0.2960
     22 C         140.6286  139.9029  164.2299 C.3     1  UNL1        0.0890
     23 H         139.7671  138.2520  163.3019 H       1  UNL1        0.1233
@<TRIPOS>BOND
     1     1     2    2
     2     2     4    1
     3     4     5   ar
     4     5     6   ar
     5     6     7   ar
     6     7     8   ar
     7     8     9    1
     8     8    10   ar
     9    10    11    1
    10     2     3   am
    11     3    12    1
    12    12    13   ar
    13    13    14   ar
    14    14    15   ar
    15    15    16   ar
    16    16    17   ar
    17    18     3    1
    18    18    19    1
    19    19    20    1
    20    20    21    1
    21    21    22    1
    22    10     4   ar
    23    17    12   ar
    24    22    18    1
    25    21    23    1
@<TRIPOS>MOLECULE
*****
 23 25 0 0 0
SMALL
GASTEIGER

@<TRIPOS>ATOM
      1 O         141.8066  139.6168  166.4211 O.2     1  UNL1       -0.2695
      2 C         141.2994  140.7400  165.5660 C.2     1  UNL1        0.2536
      3 N         141.1999  142.1262  166.1302 N.am    1  UNL1       -0.2554
      4 C         140.8917  140.4769  164.1466 C.ar    1  UNL1        0.0653
      5 C         141.8798  140.6690  163.0346 C.ar    1  UNL1        0.0054
      6 C         141.4721  140.4059  161.6152 C.ar    1  UNL1        0.0011
      7 C         140.0763  139.9507  161.3079 C.ar    1  UNL1        0.0123
      8 C         139.0881  139.7586  162.4200 C.ar    1  UNL1        0.0683
      9 CL        137.6923  139.3034  162.1127 Cl      1  UNL1       -0.0814
     10 C         139.4958  140.0217  163.8394 C.ar    1  UNL1        0.0726
     11 CL        138.5077  139.8296  164.9514 Cl      1  UNL1       -0.0812
     12 C         141.6076  142.3893  167.5496 C.ar    1  UNL1        0.0541
     13 C         143.0317  142.1808  167.9718 C.ar    1  UNL1        0.0149
     14 C         143.4394  142.4439  169.3911 C.ar    1  UNL1        0.0013
     15 C         142.4230  142.9155  170.3883 C.ar    1  UNL1        0.0001
     16 C         140.9988  143.1240  169.9661 C.ar    1  UNL1        0.0013
     17 C         140.5911  142.8609  168.5468 C.ar    1  UNL1        0.0149
     18 C         140.6926  143.2494  165.2751 C.3     1  UNL1        0.0971
     19 C         139.2593  143.6651  165.1247 C.3     1  UNL1        0.0387
     20 C         139.2105  144.8267  164.1769 C.3     1  UNL1        0.0704
     21 N         140.6138  145.1290  163.7416 N.3     1  UNL1       -0.2960
     22 C         141.5299  144.1542  164.4204 C.3     1  UNL1        0.0890
     23 H         140.8618  146.0814  164.0097 H       1  UNL1        0.1233
@<TRIPOS>BOND
     1     1     2    2
     2     2     4    1
     3     4     5   ar
     4     5     6   ar
     5     6     7   ar
     6     7     8   ar
     7     8     9    1
     8     8    10   ar
     9    10    11    1
    10     2     3   am
    11     3    12    1
    12    12    13   ar
    13    13    14   ar
    14    14    15   ar
    15    15    16   ar
    16    16    17   ar
    17    18     3    1
    18    18    19    1
    19    19    20    1
    20    20    21    1
    21    21    22    1
    22    10     4   ar
    23    17    12   ar
    24    22    18    1
    25    21    23    1
