@<TRIPOS>MOLECULE
*****
 27 30 0 0 0
SMALL
GASTEIGER

@<TRIPOS>ATOM
      1 C         141.1982  142.3138  165.2273 C.2     1  UNL1        0.0020
      2 C         142.5920  142.0397  164.7452 C.2     1  UNL1        0.0130
      3 C         143.0496  142.5849  163.4248 C.3     1  UNL1        0.1542
      4 C         143.9857  141.7657  164.2631 C.3     1  UNL1        0.0614
      5 C         145.3794  141.4917  163.7810 C.3     1  UNL1        0.0725
      6 N         145.8370  142.0369  162.4606 N.3     1  UNL1       -0.2972
      7 C         144.9010  142.8561  161.6224 C.3     1  UNL1        0.0725
      8 C         143.5073  143.1301  162.1045 C.3     1  UNL1        0.0614
      9 O         142.1135  143.4041  162.5866 O.3     1  UNL1       -0.4785
     10 C         140.7198  143.6782  163.0687 C.ar    1  UNL1        0.1386
     11 C         139.7837  144.4974  162.2304 C.ar    1  UNL1        0.0369
     12 C         138.3900  144.7714  162.7125 C.ar    1  UNL1        0.0031
     13 C         137.9323  144.2262  164.0328 C.ar    1  UNL1        0.0002
     14 C         138.8684  143.4070  164.8711 C.ar    1  UNL1        0.0030
     15 C         140.2621  143.1330  164.3890 C.ar    1  UNL1        0.0338
     16 H         146.1172  141.2371  161.8930 H       1  UNL1        0.1233
     17 C         139.8252  140.6783  169.1883 C.ar    1  UNL1        0.0531
     18 C         140.5710  141.9785  169.1316 C.ar    1  UNL1        0.0045
     19 C         141.0286  142.5236  167.8113 C.ar    1  UNL1        0.0001
     20 C         140.7405  141.7686  166.5476 C.ar    1  UNL1       -0.0001
     21 C         139.9947  140.4684  166.6043 C.ar    1  UNL1        0.0001
     22 C         139.5370  139.9232  167.9246 C.ar    1  UNL1        0.0045
     23 N         140.3191  140.0752  171.6667 N.am    1  UNL1       -0.3253
     24 C         139.3675  140.1331  170.5087 C.2     1  UNL1        0.2427
     25 O         137.9581  139.6458  170.6710 O.2     1  UNL1       -0.2704
     26 H         140.0188  139.7174  172.5333 H       1  UNL1        0.1453
     27 H         141.2441  140.3950  171.5601 H       1  UNL1        0.1453
@<TRIPOS>BOND
     1    23    24   am
     2    24    25    2
     3    24    17    1
     4    17    18   ar
     5    18    19   ar
     6    19    20   ar
     7    20     1    1
     8     1     2    2
     9     2     3    1
    10     3     4    1
    11     4     5    1
    12     5     6    1
    13     6     7    1
    14     7     8    1
    15     3     9    1
    16     9    10    1
    17    10    11   ar
    18    11    12   ar
    19    12    13   ar
    20    13    14   ar
    21    14    15   ar
    22    20    21   ar
    23    21    22   ar
    24    22    17   ar
    25    15     1    1
    26     8     3    1
    27    15    10   ar
    28    23    26    1
    29    23    27    1
    30     6    16    1
@<TRIPOS>MOLECULE
*****
 27 30 0 0 0
SMALL
GASTEIGER

@<TRIPOS>ATOM
      1 C         141.4823  142.1192  166.2652 C.2     1  UNL1        0.0020
      2 C         140.9818  142.5421  167.6146 C.2     1  UNL1        0.0130
      3 C         141.2366  141.6777  168.8137 C.3     1  UNL1        0.1542
      4 C         140.4814  142.9649  168.9639 C.3     1  UNL1        0.0614
      5 C         139.9809  143.3878  170.3132 C.3     1  UNL1        0.0725
      6 N         140.2357  142.5234  171.5123 N.3     1  UNL1       -0.2972
      7 C         140.9909  141.2361  171.3622 C.3     1  UNL1        0.0725
      8 C         141.4913  140.8133  170.0129 C.3     1  UNL1        0.0614
      9 O         141.9918  140.3904  168.6635 O.3     1  UNL1       -0.4785
     10 C         142.4923  139.9675  167.3142 C.ar    1  UNL1        0.1386
     11 C         143.2475  138.6802  167.1639 C.ar    1  UNL1        0.0369
     12 C         143.7480  138.2573  165.8146 C.ar    1  UNL1        0.0031
     13 C         143.4932  139.1217  164.6155 C.ar    1  UNL1        0.0002
     14 C         142.7380  140.4090  164.7657 C.ar    1  UNL1        0.0030
     15 C         142.2375  140.8319  166.1150 C.ar    1  UNL1        0.0338
     16 H         139.3240  142.2860  171.9032 H       1  UNL1        0.1233
     17 C         140.7181  144.7123  162.6678 C.ar    1  UNL1        0.0531
     18 C         142.0471  144.7645  163.3612 C.ar    1  UNL1        0.0045
     19 C         142.3019  143.9001  164.5604 C.ar    1  UNL1        0.0001
     20 C         141.2276  142.9836  165.0661 C.ar    1  UNL1       -0.0001
     21 C         139.8984  142.9314  164.3727 C.ar    1  UNL1        0.0001
     22 C         139.6437  143.7958  163.1735 C.ar    1  UNL1        0.0045
     23 N         141.4211  145.5594  160.3145 N.am    1  UNL1       -0.3253
     24 C         140.4633  145.5767  161.4687 C.2     1  UNL1        0.2427
     25 O         139.2507  146.4586  161.4238 O.2     1  UNL1       -0.2704
     26 H         141.2539  146.1267  159.5275 H       1  UNL1        0.1453
     27 H         142.2170  144.9806  160.3440 H       1  UNL1        0.1453
@<TRIPOS>BOND
     1    23    24   am
     2    24    25    2
     3    24    17    1
     4    17    18   ar
     5    18    19   ar
     6    19    20   ar
     7    20     1    1
     8     1     2    2
     9     2     3    1
    10     3     4    1
    11     4     5    1
    12     5     6    1
    13     6     7    1
    14     7     8    1
    15     3     9    1
    16     9    10    1
    17    10    11   ar
    18    11    12   ar
    19    12    13   ar
    20    13    14   ar
    21    14    15   ar
    22    20    21   ar
    23    21    22   ar
    24    22    17   ar
    25    15     1    1
    26     8     3    1
    27    15    10   ar
    28    23    26    1
    29    23    27    1
    30     6    16    1
@<TRIPOS>MOLECULE
*****
 27 30 0 0 0
SMALL
GASTEIGER

@<TRIPOS>ATOM
      1 C         141.3043  142.2979  164.9562 C.2     1  UNL1        0.0020
      2 C         140.5037  143.3205  164.2056 C.2     1  UNL1        0.0130
      3 C         140.9957  143.8373  162.8862 C.3     1  UNL1        0.1542
      4 C         139.7032  144.3430  163.4550 C.3     1  UNL1        0.0614
      5 C         138.9026  145.3656  162.7044 C.3     1  UNL1        0.0725
      6 N         139.3946  145.8824  161.3849 N.3     1  UNL1       -0.2972
      7 C         140.6871  145.3766  160.8161 C.3     1  UNL1        0.0725
      8 C         141.4876  144.3541  161.5667 C.3     1  UNL1        0.0614
      9 O         142.2883  143.3315  162.3174 O.3     1  UNL1       -0.4785
     10 C         143.0888  142.3089  163.0680 C.ar    1  UNL1        0.1386
     11 C         144.3814  141.8031  162.4992 C.ar    1  UNL1        0.0369
     12 C         145.1819  140.7805  163.2498 C.ar    1  UNL1        0.0031
     13 C         144.6900  140.2637  164.5692 C.ar    1  UNL1        0.0002
     14 C         143.3974  140.7695  165.1380 C.ar    1  UNL1        0.0030
     15 C         142.5968  141.7921  164.3874 C.ar    1  UNL1        0.0338
     16 H         139.4912  146.8931  161.4821 H       1  UNL1        0.1233
     17 C         139.8284  140.7475  168.9145 C.ar    1  UNL1        0.0531
     18 C         139.4708  140.0292  167.6472 C.ar    1  UNL1        0.0045
     19 C         139.9628  140.5460  166.3277 C.ar    1  UNL1        0.0001
     20 C         140.8124  141.7811  166.2756 C.ar    1  UNL1       -0.0001
     21 C         141.1700  142.4994  167.5430 C.ar    1  UNL1        0.0001
     22 C         140.6781  141.9826  168.8624 C.ar    1  UNL1        0.0045
     23 N         140.2779  140.1272  171.3971 N.am    1  UNL1       -0.3253
     24 C         139.3365  140.2307  170.2339 C.2     1  UNL1        0.2427
     25 O         137.9030  139.8173  170.3902 O.2     1  UNL1       -0.2704
     26 H         139.9550  139.7880  172.2630 H       1  UNL1        0.1453
     27 H         141.2187  140.3984  171.2945 H       1  UNL1        0.1453
@<TRIPOS>BOND
     1    23    24   am
     2    24    25    2
     3    24    17    1
     4    17    18   ar
     5    18    19   ar
     6    19    20   ar
     7    20     1    1
     8     1     2    2
     9     2     3    1
    10     3     4    1
    11     4     5    1
    12     5     6    1
    13     6     7    1
    14     7     8    1
    15     3     9    1
    16     9    10    1
    17    10    11   ar
    18    11    12   ar
    19    12    13   ar
    20    13    14   ar
    21    14    15   ar
    22    20    21   ar
    23    21    22   ar
    24    22    17   ar
    25    15     1    1
    26     8     3    1
    27    15    10   ar
    28    23    26    1
    29    23    27    1
    30     6    16    1
@<TRIPOS>MOLECULE
*****
 27 30 0 0 0
SMALL
GASTEIGER

@<TRIPOS>ATOM
      1 C         140.6673  141.5180  165.3792 C.2     1  UNL1        0.0020
      2 C         141.0228  140.1880  164.7835 C.2     1  UNL1        0.0130
      3 C         140.5674  139.8414  163.3969 C.3     1  UNL1        0.1542
      4 C         141.3783  138.8581  164.1878 C.3     1  UNL1        0.0614
      5 C         141.7338  137.5282  163.5920 C.3     1  UNL1        0.0725
      6 N         141.2784  137.1816  162.2055 N.3     1  UNL1       -0.2972
      7 C         140.4676  138.1650  161.4146 C.3     1  UNL1        0.0725
      8 C         140.1121  139.4949  162.0104 C.3     1  UNL1        0.0614
      9 O         139.7566  140.8249  162.6061 O.3     1  UNL1       -0.4785
     10 C         139.4011  142.1548  163.2018 C.ar    1  UNL1        0.1386
     11 C         138.5902  143.1383  162.4110 C.ar    1  UNL1        0.0369
     12 C         138.2347  144.4682  163.0067 C.ar    1  UNL1        0.0031
     13 C         138.6901  144.8147  164.3933 C.ar    1  UNL1        0.0002
     14 C         139.5009  143.8313  165.1841 C.ar    1  UNL1        0.0030
     15 C         139.8564  142.5013  164.5884 C.ar    1  UNL1        0.0338
     16 H         140.7181  136.3329  162.2831 H       1  UNL1        0.1233
     17 C         142.0334  142.5575  169.5389 C.ar    1  UNL1        0.0531
     18 C         140.5742  142.3538  169.2577 C.ar    1  UNL1        0.0045
     19 C         140.1188  142.0072  167.8712 C.ar    1  UNL1        0.0001
     20 C         141.1226  141.8645  166.7658 C.ar    1  UNL1       -0.0001
     21 C         142.5820  142.0682  167.0470 C.ar    1  UNL1        0.0001
     22 C         143.0373  142.4148  168.4335 C.ar    1  UNL1        0.0045
     23 N         143.5727  143.9211  171.1267 N.am    1  UNL1       -0.3253
     24 C         142.4887  142.9041  170.9255 C.2     1  UNL1        0.2427
     25 O         141.8601  142.2335  172.1109 O.2     1  UNL1       -0.2704
     26 H         143.8716  144.1486  172.0367 H       1  UNL1        0.1453
     27 H         143.9853  144.3612  170.3487 H       1  UNL1        0.1453
@<TRIPOS>BOND
     1    23    24   am
     2    24    25    2
     3    24    17    1
     4    17    18   ar
     5    18    19   ar
     6    19    20   ar
     7    20     1    1
     8     1     2    2
     9     2     3    1
    10     3     4    1
    11     4     5    1
    12     5     6    1
    13     6     7    1
    14     7     8    1
    15     3     9    1
    16     9    10    1
    17    10    11   ar
    18    11    12   ar
    19    12    13   ar
    20    13    14   ar
    21    14    15   ar
    22    20    21   ar
    23    21    22   ar
    24    22    17   ar
    25    15     1    1
    26     8     3    1
    27    15    10   ar
    28    23    26    1
    29    23    27    1
    30     6    16    1
@<TRIPOS>MOLECULE
*****
 27 30 0 0 0
SMALL
GASTEIGER

@<TRIPOS>ATOM
      1 C         141.3646  141.7019  165.1416 C.2     1  UNL1        0.0020
      2 C         142.3001  140.8025  164.3893 C.2     1  UNL1        0.0130
      3 C         142.5417  141.0268  162.9260 C.3     1  UNL1        0.1542
      4 C         143.2356  139.9031  163.6371 C.3     1  UNL1        0.0614
      5 C         144.1711  139.0037  162.8849 C.3     1  UNL1        0.0725
      6 N         144.4127  139.2280  161.4216 N.3     1  UNL1       -0.2972
      7 C         143.7188  140.3517  160.7105 C.3     1  UNL1        0.0725
      8 C         142.7833  141.2511  161.4627 C.3     1  UNL1        0.0614
      9 O         141.8477  142.1505  162.2149 O.3     1  UNL1       -0.4785
     10 C         140.9122  143.0499  162.9671 C.ar    1  UNL1        0.1386
     11 C         140.2182  144.1737  162.2560 C.ar    1  UNL1        0.0369
     12 C         139.2827  145.0731  163.0082 C.ar    1  UNL1        0.0031
     13 C         139.0411  144.8488  164.4715 C.ar    1  UNL1        0.0002
     14 C         139.7350  143.7251  165.1827 C.ar    1  UNL1        0.0030
     15 C         140.6706  142.8256  164.4304 C.ar    1  UNL1        0.0338
     16 H         144.1453  138.3674  160.9437 H       1  UNL1        0.1233
     17 C         140.6399  141.0291  169.5316 C.ar    1  UNL1        0.0531
     18 C         139.7863  140.3309  168.5148 C.ar    1  UNL1        0.0045
     19 C         140.0278  140.5551  167.0515 C.ar    1  UNL1        0.0001
     20 C         141.1230  141.4777  166.6049 C.ar    1  UNL1       -0.0001
     21 C         141.9767  142.1759  167.6216 C.ar    1  UNL1        0.0001
     22 C         141.7351  141.9517  169.0850 C.ar    1  UNL1        0.0045
     23 N         139.9529  139.4585  171.4838 N.am    1  UNL1       -0.3253
     24 C         140.3983  140.8048  170.9949 C.2     1  UNL1        0.2427
     25 O         140.6022  141.9269  171.9693 O.2     1  UNL1       -0.2704
     26 H         139.7943  139.3113  172.4442 H       1  UNL1        0.1453
     27 H         139.8190  138.7221  170.8443 H       1  UNL1        0.1453
@<TRIPOS>BOND
     1    23    24   am
     2    24    25    2
     3    24    17    1
     4    17    18   ar
     5    18    19   ar
     6    19    20   ar
     7    20     1    1
     8     1     2    2
     9     2     3    1
    10     3     4    1
    11     4     5    1
    12     5     6    1
    13     6     7    1
    14     7     8    1
    15     3     9    1
    16     9    10    1
    17    10    11   ar
    18    11    12   ar
    19    12    13   ar
    20    13    14   ar
    21    14    15   ar
    22    20    21   ar
    23    21    22   ar
    24    22    17   ar
    25    15     1    1
    26     8     3    1
    27    15    10   ar
    28    23    26    1
    29    23    27    1
    30     6    16    1
@<TRIPOS>MOLECULE
*****
 27 30 0 0 0
SMALL
GASTEIGER

@<TRIPOS>ATOM
      1 C         139.9274  141.9964  165.8450 C.2     1  UNL1        0.0020
      2 C         140.3027  142.4779  167.2152 C.2     1  UNL1        0.0130
      3 C         140.2156  141.5461  168.3875 C.3     1  UNL1        0.1542
      4 C         140.6780  142.9592  168.5854 C.3     1  UNL1        0.0614
      5 C         141.0534  143.4406  169.9555 C.3     1  UNL1        0.0725
      6 N         140.9662  142.5089  171.1278 N.3     1  UNL1       -0.2972
      7 C         140.5038  141.0957  170.9299 C.3     1  UNL1        0.0725
      8 C         140.1285  140.6144  169.5598 C.3     1  UNL1        0.0614
      9 O         139.7532  140.1329  168.1895 O.3     1  UNL1       -0.4785
     10 C         139.3779  139.6516  166.8194 C.ar    1  UNL1        0.1386
     11 C         138.9154  138.2384  166.6215 C.ar    1  UNL1        0.0369
     12 C         138.5401  137.7570  165.2513 C.ar    1  UNL1        0.0031
     13 C         138.6272  138.6888  164.0790 C.ar    1  UNL1        0.0002
     14 C         139.0897  140.1019  164.2769 C.ar    1  UNL1        0.0030
     15 C         139.4650  140.5833  165.6471 C.ar    1  UNL1        0.0338
     16 H         140.3267  142.9369  171.7973 H       1  UNL1        0.1233
     17 C         140.1887  144.7917  162.3281 C.ar    1  UNL1        0.0531
     18 C         138.9215  144.7067  163.1261 C.ar    1  UNL1        0.0045
     19 C         138.8344  143.7749  164.2984 C.ar    1  UNL1        0.0001
     20 C         140.0145  142.9282  164.6727 C.ar    1  UNL1       -0.0001
     21 C         141.2819  143.0132  163.8748 C.ar    1  UNL1        0.0001
     22 C         141.3690  143.9449  162.7025 C.ar    1  UNL1        0.0045
     23 N         141.4461  145.6451  160.2209 N.am    1  UNL1       -0.3253
     24 C         140.2759  145.7235  161.1559 C.2     1  UNL1        0.2427
     25 O         139.1926  146.7337  160.9186 O.2     1  UNL1       -0.2704
     26 H         141.5033  146.2566  159.4515 H       1  UNL1        0.1453
     27 H         142.1570  144.9821  160.3766 H       1  UNL1        0.1453
@<TRIPOS>BOND
     1    23    24   am
     2    24    25    2
     3    24    17    1
     4    17    18   ar
     5    18    19   ar
     6    19    20   ar
     7    20     1    1
     8     1     2    2
     9     2     3    1
    10     3     4    1
    11     4     5    1
    12     5     6    1
    13     6     7    1
    14     7     8    1
    15     3     9    1
    16     9    10    1
    17    10    11   ar
    18    11    12   ar
    19    12    13   ar
    20    13    14   ar
    21    14    15   ar
    22    20    21   ar
    23    21    22   ar
    24    22    17   ar
    25    15     1    1
    26     8     3    1
    27    15    10   ar
    28    23    26    1
    29    23    27    1
    30     6    16    1
@<TRIPOS>MOLECULE
*****
 27 30 0 0 0
SMALL
GASTEIGER

@<TRIPOS>ATOM
      1 C         141.1757  141.8737  165.0386 C.2     1  UNL1        0.0020
      2 C         140.7897  143.0034  164.1304 C.2     1  UNL1        0.0130
      3 C         140.4713  142.7324  162.6899 C.3     1  UNL1        0.1542
      4 C         140.4038  144.1331  163.2222 C.3     1  UNL1        0.0614
      5 C         140.0178  145.2627  162.3140 C.3     1  UNL1        0.0725
      6 N         139.6993  144.9917  160.8735 N.3     1  UNL1       -0.2972
      7 C         139.7668  143.5910  160.3412 C.3     1  UNL1        0.0725
      8 C         140.1528  142.4614  161.2493 C.3     1  UNL1        0.0614
      9 O         140.5388  141.3316  162.1575 O.3     1  UNL1       -0.4785
     10 C         140.9247  140.2019  163.0657 C.ar    1  UNL1        0.1386
     11 C         140.9923  138.8011  162.5334 C.ar    1  UNL1        0.0369
     12 C         141.3782  137.6715  163.4415 C.ar    1  UNL1        0.0031
     13 C         141.6967  137.9425  164.8821 C.ar    1  UNL1        0.0002
     14 C         141.6292  139.3432  165.4144 C.ar    1  UNL1        0.0030
     15 C         141.2432  140.4730  164.5062 C.ar    1  UNL1        0.0338
     16 H         140.3485  145.5493  160.3185 H       1  UNL1        0.1233
     17 C         142.1311  142.6867  169.3602 C.ar    1  UNL1        0.0531
     18 C         140.7098  142.7388  168.8836 C.ar    1  UNL1        0.0045
     19 C         140.3914  142.4677  167.4431 C.ar    1  UNL1        0.0001
     20 C         141.4942  142.1447  166.4791 C.ar    1  UNL1       -0.0001
     21 C         142.9156  142.0926  166.9556 C.ar    1  UNL1        0.0001
     22 C         143.2341  142.3637  168.3961 C.ar    1  UNL1        0.0045
     23 N         143.5080  143.9583  171.1594 N.am    1  UNL1       -0.3253
     24 C         142.4496  142.9578  170.8007 C.2     1  UNL1        0.2427
     25 O         141.7096  142.2282  171.8825 O.2     1  UNL1       -0.2704
     26 H         143.7170  144.1362  172.1049 H       1  UNL1        0.1453
     27 H         143.9937  144.4371  170.4494 H       1  UNL1        0.1453
@<TRIPOS>BOND
     1    23    24   am
     2    24    25    2
     3    24    17    1
     4    17    18   ar
     5    18    19   ar
     6    19    20   ar
     7    20     1    1
     8     1     2    2
     9     2     3    1
    10     3     4    1
    11     4     5    1
    12     5     6    1
    13     6     7    1
    14     7     8    1
    15     3     9    1
    16     9    10    1
    17    10    11   ar
    18    11    12   ar
    19    12    13   ar
    20    13    14   ar
    21    14    15   ar
    22    20    21   ar
    23    21    22   ar
    24    22    17   ar
    25    15     1    1
    26     8     3    1
    27    15    10   ar
    28    23    26    1
    29    23    27    1
    30     6    16    1
@<TRIPOS>MOLECULE
*****
 27 30 0 0 0
SMALL
GASTEIGER

@<TRIPOS>ATOM
      1 C         140.5263  141.1422  164.8871 C.2     1  UNL1        0.0020
      2 C         140.7636  142.5661  164.4791 C.2     1  UNL1        0.0130
      3 C         140.2302  143.0702  163.1709 C.3     1  UNL1        0.1542
      4 C         141.0008  143.9898  164.0711 C.3     1  UNL1        0.0614
      5 C         141.2380  145.4136  163.6631 C.3     1  UNL1        0.0725
      6 N         140.7046  145.9178  162.3549 N.3     1  UNL1       -0.2972
      7 C         139.9341  144.9981  161.4547 C.3     1  UNL1        0.0725
      8 C         139.6969  143.5743  161.8627 C.3     1  UNL1        0.0614
      9 O         139.4596  142.1504  162.2707 O.3     1  UNL1       -0.4785
     10 C         139.2224  140.7267  162.6787 C.ar    1  UNL1        0.1386
     11 C         138.4518  139.8069  161.7785 C.ar    1  UNL1        0.0369
     12 C         138.2146  138.3831  162.1864 C.ar    1  UNL1        0.0031
     13 C         138.7480  137.8790  163.4946 C.ar    1  UNL1        0.0002
     14 C         139.5185  138.7986  164.3948 C.ar    1  UNL1        0.0030
     15 C         139.7558  140.2225  163.9869 C.ar    1  UNL1        0.0338
     16 H         141.5060  146.2511  161.8191 H       1  UNL1        0.1233
     17 C         142.1264  139.6298  168.8117 C.ar    1  UNL1        0.0531
     18 C         142.9510  139.4999  167.5655 C.ar    1  UNL1        0.0045
     19 C         142.4177  140.0041  166.2573 C.ar    1  UNL1        0.0001
     20 C         141.0597  140.6380  166.1953 C.ar    1  UNL1       -0.0001
     21 C         140.2350  140.7679  167.4415 C.ar    1  UNL1        0.0001
     22 C         140.7683  140.2638  168.7497 C.ar    1  UNL1        0.0045
     23 N         142.7423  140.0465  171.3010 N.am    1  UNL1       -0.3253
     24 C         142.6597  139.1256  170.1199 C.2     1  UNL1        0.2427
     25 O         143.1105  137.7006  170.2469 O.2     1  UNL1       -0.2704
     26 H         143.0924  139.7156  172.1596 H       1  UNL1        0.1453
     27 H         142.4464  140.9817  171.2177 H       1  UNL1        0.1453
@<TRIPOS>BOND
     1    23    24   am
     2    24    25    2
     3    24    17    1
     4    17    18   ar
     5    18    19   ar
     6    19    20   ar
     7    20     1    1
     8     1     2    2
     9     2     3    1
    10     3     4    1
    11     4     5    1
    12     5     6    1
    13     6     7    1
    14     7     8    1
    15     3     9    1
    16     9    10    1
    17    10    11   ar
    18    11    12   ar
    19    12    13   ar
    20    13    14   ar
    21    14    15   ar
    22    20    21   ar
    23    21    22   ar
    24    22    17   ar
    25    15     1    1
    26     8     3    1
    27    15    10   ar
    28    23    26    1
    29    23    27    1
    30     6    16    1
@<TRIPOS>MOLECULE
*****
 27 30 0 0 0
SMALL
GASTEIGER

@<TRIPOS>ATOM
      1 C         140.6855  141.1601  165.2946 C.2     1  UNL1        0.0020
      2 C         141.9532  140.4859  164.8604 C.2     1  UNL1        0.0130
      3 C         142.1666  140.1501  163.4141 C.3     1  UNL1        0.1542
      4 C         143.2208  139.8117  164.4262 C.3     1  UNL1        0.0614
      5 C         144.4884  139.1374  163.9920 C.3     1  UNL1        0.0725
      6 N         144.7018  138.8016  162.5457 N.3     1  UNL1       -0.2972
      7 C         143.6477  139.1400  161.5337 C.3     1  UNL1        0.0725
      8 C         142.3801  139.8143  161.9679 C.3     1  UNL1        0.0614
      9 O         141.1124  140.4885  162.4021 O.3     1  UNL1       -0.4785
     10 C         139.8448  141.1627  162.8363 C.ar    1  UNL1        0.1386
     11 C         138.7906  141.5012  161.8243 C.ar    1  UNL1        0.0369
     12 C         137.5230  142.1754  162.2585 C.ar    1  UNL1        0.0031
     13 C         137.3096  142.5112  163.7047 C.ar    1  UNL1        0.0002
     14 C         138.3637  142.1728  164.7168 C.ar    1  UNL1        0.0030
     15 C         139.6314  141.4985  164.2826 C.ar    1  UNL1        0.0338
     16 H         144.8450  137.7930  162.4957 H       1  UNL1        0.1233
     17 C         140.0451  142.1676  169.6334 C.ar    1  UNL1        0.0531
     18 C         140.5842  143.2054  168.6941 C.ar    1  UNL1        0.0045
     19 C         140.7977  142.8695  167.2479 C.ar    1  UNL1        0.0001
     20 C         140.4720  141.4959  166.7409 C.ar    1  UNL1       -0.0001
     21 C         139.9328  140.4581  167.6801 C.ar    1  UNL1        0.0001
     22 C         139.7194  140.7939  169.1264 C.ar    1  UNL1        0.0045
     23 N         138.7735  143.4915  171.4719 N.am    1  UNL1       -0.3253
     24 C         139.8316  142.5034  171.0796 C.2     1  UNL1        0.2427
     25 O         140.6764  141.8510  172.1337 O.2     1  UNL1       -0.2704
     26 H         138.6334  143.7119  172.4211 H       1  UNL1        0.1453
     27 H         138.2191  143.9196  170.7801 H       1  UNL1        0.1453
@<TRIPOS>BOND
     1    23    24   am
     2    24    25    2
     3    24    17    1
     4    17    18   ar
     5    18    19   ar
     6    19    20   ar
     7    20     1    1
     8     1     2    2
     9     2     3    1
    10     3     4    1
    11     4     5    1
    12     5     6    1
    13     6     7    1
    14     7     8    1
    15     3     9    1
    16     9    10    1
    17    10    11   ar
    18    11    12   ar
    19    12    13   ar
    20    13    14   ar
    21    14    15   ar
    22    20    21   ar
    23    21    22   ar
    24    22    17   ar
    25    15     1    1
    26     8     3    1
    27    15    10   ar
    28    23    26    1
    29    23    27    1
    30     6    16    1
