@<TRIPOS>MOLECULE
*****
 28 31 0 0 0
SMALL
GASTEIGER

@<TRIPOS>ATOM
      1 C         140.9064  142.0716  171.1498 C.3     1  UNL1        0.0307
      2 C         141.0617  141.3242  169.8586 C.ar    1  UNL1       -0.0242
      3 C         139.8495  140.8186  169.1342 C.ar    1  UNL1        0.0160
      4 C         140.0048  140.0711  167.8430 C.ar    1  UNL1        0.0980
      5 N         139.0018  139.4579  166.9114 N.ar    1  UNL1       -0.2310
      6 C         139.7495  138.8369  165.7689 C.ar    1  UNL1        0.1205
      7 N         141.2146  139.0664  165.9944 N.ar    1  UNL1       -0.3107
      8 C         141.3723  139.8292  167.2763 C.ar    1  UNL1        0.0785
      9 C         142.5846  140.3348  168.0007 C.ar    1  UNL1        0.0142
     10 C         142.4292  141.0822  169.2919 C.ar    1  UNL1       -0.0243
     11 C         143.6416  141.5878  170.0164 C.3     1  UNL1        0.0307
     12 C         139.1393  138.1134  164.6051 C.3     1  UNL1        0.0640
     13 C         138.5394  138.8897  163.4703 C.3     1  UNL1        0.0102
     14 C         138.0982  138.1784  162.2256 C.3     1  UNL1        0.0176
     15 C         137.4984  138.9546  161.0909 C.3     1  UNL1        0.0685
     16 N         137.3398  140.4422  161.2009 N.3     1  UNL1       -0.2985
     17 C         137.7810  141.1535  162.4456 C.3     1  UNL1        0.0540
     18 C         137.6223  142.6409  162.5556 C.3     1  UNL1        0.0171
     19 C         138.3808  140.3772  163.5804 C.3     1  UNL1        0.0162
     20 H         136.3463  140.6418  161.0841 H       1  UNL1        0.1232
     21 C         142.3267  138.6128  165.0958 C.3     1  UNL1        0.1339
     22 C         142.9959  139.5921  164.1777 C.ar    1  UNL1        0.0005
     23 C         142.1957  140.3013  163.1256 C.ar    1  UNL1       -0.0015
     24 C         142.8649  141.2806  162.2073 C.ar    1  UNL1        0.0111
     25 C         144.3343  141.5507  162.3411 C.ar    1  UNL1        0.0577
     26 CL        145.0035  142.5300  161.4230 Cl      1  UNL1       -0.0822
     27 C         145.1345  140.8416  163.3932 C.ar    1  UNL1        0.0111
     28 C         144.4653  139.8622  164.3115 C.ar    1  UNL1       -0.0015
@<TRIPOS>BOND
     1     1     2    1
     2     2     3   ar
     3     3     4   ar
     4     4     5   ar
     5     5     6   ar
     6     6    12    1
     7    12    13    1
     8    13    14    1
     9    14    15    1
    10    15    16    1
    11    16    17    1
    12    17    18    1
    13    17    19    1
    14     6     7   ar
    15     7    21    1
    16    21    22    1
    17    22    23   ar
    18    23    24   ar
    19    24    25   ar
    20    25    26    1
    21    25    27   ar
    22    27    28   ar
    23     7     8   ar
    24     8     9   ar
    25     9    10   ar
    26    10    11    1
    27    10     2   ar
    28     8     4   ar
    29    19    13    1
    30    28    22   ar
    31    16    20    1
@<TRIPOS>MOLECULE
*****
 28 31 0 0 0
SMALL
GASTEIGER

@<TRIPOS>ATOM
      1 C         142.5222  143.2548  170.4122 C.3     1  UNL1        0.0307
      2 C         142.0209  142.2791  169.3891 C.ar    1  UNL1       -0.0242
      3 C         142.9715  141.6793  168.3958 C.ar    1  UNL1        0.0160
      4 C         142.4702  140.7035  167.3728 C.ar    1  UNL1        0.0980
      5 N         143.1657  139.9546  166.2747 N.ar    1  UNL1       -0.2310
      6 C         142.1436  139.1157  165.5664 C.ar    1  UNL1        0.1205
      7 N         140.8166  139.3462  166.2267 N.ar    1  UNL1       -0.3107
      8 C         141.0185  140.3275  167.3431 C.ar    1  UNL1        0.0785
      9 C         140.0679  140.9272  168.3364 C.ar    1  UNL1        0.0142
     10 C         140.5692  141.9030  169.3594 C.ar    1  UNL1       -0.0243
     11 C         139.6186  142.5028  170.3528 C.3     1  UNL1        0.0307
     12 C         142.4030  138.2060  164.4022 C.3     1  UNL1        0.0640
     13 C         142.5800  138.7792  163.0275 C.3     1  UNL1        0.0102
     14 C         143.6056  138.1990  162.0993 C.3     1  UNL1        0.0176
     15 C         143.7826  138.7722  160.7245 C.3     1  UNL1        0.0685
     16 N         142.9339  139.9256  160.2778 N.3     1  UNL1       -0.2985
     17 C         141.9082  140.5058  161.2060 C.3     1  UNL1        0.0540
     18 C         141.0596  141.6591  160.7593 C.3     1  UNL1        0.0171
     19 C         141.7313  139.9325  162.5808 C.3     1  UNL1        0.0162
     20 H         142.4351  139.6182  159.4429 H       1  UNL1        0.1232
     21 C         139.5160  138.7075  165.8387 C.3     1  UNL1        0.1339
     22 C         138.9295  138.9641  164.4823 C.ar    1  UNL1        0.0005
     23 C         138.4040  140.3262  164.1379 C.ar    1  UNL1       -0.0015
     24 C         137.8175  140.5830  162.7814 C.ar    1  UNL1        0.0111
     25 C         137.7565  139.4777  161.7692 C.ar    1  UNL1        0.0577
     26 CL        137.1700  139.7344  160.4127 Cl      1  UNL1       -0.0822
     27 C         138.2820  138.1156  162.1135 C.ar    1  UNL1        0.0111
     28 C         138.8685  137.8588  163.4701 C.ar    1  UNL1       -0.0015
@<TRIPOS>BOND
     1     1     2    1
     2     2     3   ar
     3     3     4   ar
     4     4     5   ar
     5     5     6   ar
     6     6    12    1
     7    12    13    1
     8    13    14    1
     9    14    15    1
    10    15    16    1
    11    16    17    1
    12    17    18    1
    13    17    19    1
    14     6     7   ar
    15     7    21    1
    16    21    22    1
    17    22    23   ar
    18    23    24   ar
    19    24    25   ar
    20    25    26    1
    21    25    27   ar
    22    27    28   ar
    23     7     8   ar
    24     8     9   ar
    25     9    10   ar
    26    10    11    1
    27    10     2   ar
    28     8     4   ar
    29    19    13    1
    30    28    22   ar
    31    16    20    1
@<TRIPOS>MOLECULE
*****
 28 31 0 0 0
SMALL
GASTEIGER

@<TRIPOS>ATOM
      1 C         139.7340  142.4232  170.4153 C.3     1  UNL1        0.0307
      2 C         140.4349  141.6708  169.3231 C.ar    1  UNL1       -0.0242
      3 C         139.6750  140.6886  168.4819 C.ar    1  UNL1        0.0160
      4 C         140.3759  139.9363  167.3898 C.ar    1  UNL1        0.0980
      5 N         139.8920  138.9127  166.4058 N.ar    1  UNL1       -0.2310
      6 C         141.0539  138.5101  165.5467 C.ar    1  UNL1        0.1205
      7 N         142.2558  139.2848  165.9998 N.ar    1  UNL1       -0.3107
      8 C         141.8368  140.1662  167.1389 C.ar    1  UNL1        0.0785
      9 C         142.5967  141.1484  167.9801 C.ar    1  UNL1        0.0142
     10 C         141.8958  141.9008  169.0722 C.ar    1  UNL1       -0.0243
     11 C         142.6558  142.8831  169.9135 C.3     1  UNL1        0.0307
     12 C         141.0198  137.5086  164.4305 C.3     1  UNL1        0.0640
     13 C         140.2809  137.8226  163.1634 C.3     1  UNL1        0.0102
     14 C         138.7817  137.8703  163.1617 C.3     1  UNL1        0.0176
     15 C         138.0427  138.1843  161.8947 C.3     1  UNL1        0.0685
     16 N         138.8031  138.4505  160.6293 N.3     1  UNL1       -0.2985
     17 C         140.3023  138.4028  160.6311 C.3     1  UNL1        0.0540
     18 C         141.0626  138.6691  159.3658 C.3     1  UNL1        0.0171
     19 C         141.0412  138.0888  161.8982 C.3     1  UNL1        0.0162
     20 H         138.5386  139.3852  160.3180 H       1  UNL1        0.1232
     21 C         143.6346  139.1940  165.4163 C.3     1  UNL1        0.1339
     22 C         144.0102  140.0493  164.2427 C.ar    1  UNL1        0.0005
     23 C         144.0239  139.4636  162.8617 C.ar    1  UNL1       -0.0015
     24 C         144.3994  140.3188  161.6880 C.ar    1  UNL1        0.0111
     25 C         144.7613  141.7597  161.8952 C.ar    1  UNL1        0.0577
     26 CL        145.1369  142.6149  160.7215 Cl      1  UNL1       -0.0822
     27 C         144.7476  142.3454  163.2760 C.ar    1  UNL1        0.0111
     28 C         144.3720  141.4901  164.4498 C.ar    1  UNL1       -0.0015
@<TRIPOS>BOND
     1     1     2    1
     2     2     3   ar
     3     3     4   ar
     4     4     5   ar
     5     5     6   ar
     6     6    12    1
     7    12    13    1
     8    13    14    1
     9    14    15    1
    10    15    16    1
    11    16    17    1
    12    17    18    1
    13    17    19    1
    14     6     7   ar
    15     7    21    1
    16    21    22    1
    17    22    23   ar
    18    23    24   ar
    19    24    25   ar
    20    25    26    1
    21    25    27   ar
    22    27    28   ar
    23     7     8   ar
    24     8     9   ar
    25     9    10   ar
    26    10    11    1
    27    10     2   ar
    28     8     4   ar
    29    19    13    1
    30    28    22   ar
    31    16    20    1
@<TRIPOS>MOLECULE
*****
 28 31 0 0 0
SMALL
GASTEIGER

@<TRIPOS>ATOM
      1 C         140.5829  141.8821  170.8788 C.3     1  UNL1        0.0307
      2 C         140.8150  141.1491  169.5909 C.ar    1  UNL1       -0.0242
      3 C         139.6507  140.6055  168.8171 C.ar    1  UNL1        0.0160
      4 C         139.8827  139.8724  167.5291 C.ar    1  UNL1        0.0980
      5 N         138.9392  139.2300  166.5559 N.ar    1  UNL1       -0.2310
      6 C         139.7524  138.6434  165.4403 C.ar    1  UNL1        0.1205
      7 N         141.1985  138.9234  165.7241 N.ar    1  UNL1       -0.3107
      8 C         141.2790  139.6829  167.0150 C.ar    1  UNL1        0.0785
      9 C         142.4433  140.2265  167.7889 C.ar    1  UNL1        0.0142
     10 C         142.2113  140.9595  169.0768 C.ar    1  UNL1       -0.0243
     11 C         143.3757  141.5031  169.8507 C.3     1  UNL1        0.0307
     12 C         139.2142  137.9063  164.2499 C.3     1  UNL1        0.0640
     13 C         138.9065  138.6495  162.9838 C.3     1  UNL1        0.0102
     14 C         138.0388  139.8724  163.0239 C.3     1  UNL1        0.0176
     15 C         137.7311  140.6155  161.7578 C.3     1  UNL1        0.0685
     16 N         138.2911  140.1358  160.4515 N.3     1  UNL1       -0.2985
     17 C         139.1588  138.9129  160.4114 C.3     1  UNL1        0.0540
     18 C         139.7189  138.4331  159.1052 C.3     1  UNL1        0.0171
     19 C         139.4665  138.1697  161.6776 C.3     1  UNL1        0.0162
     20 H         138.8448  140.9024  160.0692 H       1  UNL1        0.1232
     21 C         142.3602  138.5154  164.8673 C.3     1  UNL1        0.1339
     22 C         142.4898  139.0540  163.4734 C.ar    1  UNL1        0.0005
     23 C         142.0587  140.4580  163.1688 C.ar    1  UNL1       -0.0015
     24 C         142.1883  140.9967  161.7749 C.ar    1  UNL1        0.0111
     25 C         142.7490  140.1314  160.6855 C.ar    1  UNL1        0.0577
     26 CL        142.8786  140.6700  159.2916 Cl      1  UNL1       -0.0822
     27 C         143.1802  138.7273  160.9901 C.ar    1  UNL1        0.0111
     28 C         143.0506  138.1886  162.3841 C.ar    1  UNL1       -0.0015
@<TRIPOS>BOND
     1     1     2    1
     2     2     3   ar
     3     3     4   ar
     4     4     5   ar
     5     5     6   ar
     6     6    12    1
     7    12    13    1
     8    13    14    1
     9    14    15    1
    10    15    16    1
    11    16    17    1
    12    17    18    1
    13    17    19    1
    14     6     7   ar
    15     7    21    1
    16    21    22    1
    17    22    23   ar
    18    23    24   ar
    19    24    25   ar
    20    25    26    1
    21    25    27   ar
    22    27    28   ar
    23     7     8   ar
    24     8     9   ar
    25     9    10   ar
    26    10    11    1
    27    10     2   ar
    28     8     4   ar
    29    19    13    1
    30    28    22   ar
    31    16    20    1
@<TRIPOS>MOLECULE
*****
 28 31 0 0 0
SMALL
GASTEIGER

@<TRIPOS>ATOM
      1 C         142.8319  142.8650  171.0093 C.3     1  UNL1        0.0307
      2 C         142.2737  142.3181  169.7289 C.ar    1  UNL1       -0.0242
      3 C         142.9456  141.1605  169.0518 C.ar    1  UNL1        0.0160
      4 C         142.3874  140.6136  167.7715 C.ar    1  UNL1        0.0980
      5 N         142.8300  139.4889  166.8830 N.ar    1  UNL1       -0.2310
      6 C         141.8734  139.4045  165.7308 C.ar    1  UNL1        0.1205
      7 N         140.8396  140.4769  165.9071 N.ar    1  UNL1       -0.3107
      8 C         141.1573  141.2242  167.1683 C.ar    1  UNL1        0.0785
      9 C         140.4854  142.3817  167.8454 C.ar    1  UNL1        0.0142
     10 C         141.0436  142.9287  169.1257 C.ar    1  UNL1       -0.0243
     11 C         140.3716  144.0863  169.8029 C.3     1  UNL1        0.0307
     12 C         141.9391  138.4203  164.6006 C.3     1  UNL1        0.0640
     13 C         142.6605  138.7785  163.3352 C.3     1  UNL1        0.0102
     14 C         142.6079  137.8546  162.1546 C.3     1  UNL1        0.0176
     15 C         143.3293  138.2128  160.8892 C.3     1  UNL1        0.0685
     16 N         144.1033  139.4949  160.8043 N.3     1  UNL1       -0.2985
     17 C         144.1559  140.4188  161.9849 C.3     1  UNL1        0.0540
     18 C         144.9299  141.7008  161.9000 C.3     1  UNL1        0.0171
     19 C         143.4345  140.0605  163.2503 C.3     1  UNL1        0.0162
     20 H         143.7061  140.0279  160.0307 H       1  UNL1        0.1232
     21 C         139.6900  140.7536  164.9841 C.3     1  UNL1        0.1339
     22 C         139.6176  142.0574  164.2460 C.ar    1  UNL1        0.0005
     23 C         138.4150  142.9406  164.3998 C.ar    1  UNL1       -0.0015
     24 C         138.3425  144.2444  163.6617 C.ar    1  UNL1        0.0111
     25 C         139.4728  144.6651  162.7698 C.ar    1  UNL1        0.0577
     26 CL        139.4005  145.9689  162.0317 Cl      1  UNL1       -0.0822
     27 C         140.6755  143.7820  162.6160 C.ar    1  UNL1        0.0111
     28 C         140.7479  142.4781  163.3541 C.ar    1  UNL1       -0.0015
@<TRIPOS>BOND
     1     1     2    1
     2     2     3   ar
     3     3     4   ar
     4     4     5   ar
     5     5     6   ar
     6     6    12    1
     7    12    13    1
     8    13    14    1
     9    14    15    1
    10    15    16    1
    11    16    17    1
    12    17    18    1
    13    17    19    1
    14     6     7   ar
    15     7    21    1
    16    21    22    1
    17    22    23   ar
    18    23    24   ar
    19    24    25   ar
    20    25    26    1
    21    25    27   ar
    22    27    28   ar
    23     7     8   ar
    24     8     9   ar
    25     9    10   ar
    26    10    11    1
    27    10     2   ar
    28     8     4   ar
    29    19    13    1
    30    28    22   ar
    31    16    20    1
@<TRIPOS>MOLECULE
*****
 28 31 0 0 0
SMALL
GASTEIGER

@<TRIPOS>ATOM
      1 C         140.0447  145.5125  160.1544 C.3     1  UNL1        0.0307
      2 C         140.4204  144.3732  161.0549 C.ar    1  UNL1       -0.0242
      3 C         141.3262  144.6106  162.2267 C.ar    1  UNL1        0.0160
      4 C         141.7019  143.4714  163.1272 C.ar    1  UNL1        0.0980
      5 N         142.5694  143.4016  164.3489 N.ar    1  UNL1       -0.2310
      6 C         142.5754  141.9818  164.8327 C.ar    1  UNL1        0.1205
      7 N         141.7116  141.1741  163.9100 N.ar    1  UNL1       -0.3107
      8 C         141.1717  142.0947  162.8559 C.ar    1  UNL1        0.0785
      9 C         140.2659  141.8573  161.6842 C.ar    1  UNL1        0.0142
     10 C         139.8902  142.9965  160.7836 C.ar    1  UNL1       -0.0243
     11 C         138.9844  142.7591  159.6118 C.3     1  UNL1        0.0307
     12 C         143.3153  141.4611  166.0292 C.3     1  UNL1        0.0640
     13 C         142.5990  141.2832  167.3350 C.3     1  UNL1        0.0102
     14 C         142.5918  139.9438  168.0102 C.3     1  UNL1        0.0176
     15 C         141.8755  139.7659  169.3160 C.3     1  UNL1        0.0685
     16 N         141.1663  140.9275  169.9467 N.3     1  UNL1       -0.2985
     17 C         141.1734  142.2669  169.2716 C.3     1  UNL1        0.0540
     18 C         140.4643  143.4285  169.9023 C.3     1  UNL1        0.0171
     19 C         141.8898  142.4448  167.9657 C.3     1  UNL1        0.0162
     20 H         141.5813  141.0603  170.8689 H       1  UNL1        0.1232
     21 C         141.4360  139.7039  164.0217 C.3     1  UNL1        0.1339
     22 C         140.2966  139.2164  164.8667 C.ar    1  UNL1        0.0005
     23 C         139.6764  140.1254  165.8862 C.ar    1  UNL1       -0.0015
     24 C         138.5370  139.6381  166.7313 C.ar    1  UNL1        0.0111
     25 C         138.0177  138.2417  166.5570 C.ar    1  UNL1        0.0577
     26 CL        136.8783  137.7542  167.4020 Cl      1  UNL1       -0.0822
     27 C         138.6378  137.3326  165.5376 C.ar    1  UNL1        0.0111
     28 C         139.7773  137.8200  164.6924 C.ar    1  UNL1       -0.0015
@<TRIPOS>BOND
     1     1     2    1
     2     2     3   ar
     3     3     4   ar
     4     4     5   ar
     5     5     6   ar
     6     6    12    1
     7    12    13    1
     8    13    14    1
     9    14    15    1
    10    15    16    1
    11    16    17    1
    12    17    18    1
    13    17    19    1
    14     6     7   ar
    15     7    21    1
    16    21    22    1
    17    22    23   ar
    18    23    24   ar
    19    24    25   ar
    20    25    26    1
    21    25    27   ar
    22    27    28   ar
    23     7     8   ar
    24     8     9   ar
    25     9    10   ar
    26    10    11    1
    27    10     2   ar
    28     8     4   ar
    29    19    13    1
    30    28    22   ar
    31    16    20    1
@<TRIPOS>MOLECULE
*****
 28 31 0 0 0
SMALL
GASTEIGER

@<TRIPOS>ATOM
      1 C         142.8639  143.2275  171.1561 C.3     1  UNL1        0.0307
      2 C         142.2970  142.6053  169.9146 C.ar    1  UNL1       -0.0242
      3 C         142.9924  141.4404  169.2747 C.ar    1  UNL1        0.0160
      4 C         142.4255  140.8182  168.0331 C.ar    1  UNL1        0.0980
      5 N         142.8862  139.6692  167.1860 N.ar    1  UNL1       -0.2310
      6 C         141.9086  139.5018  166.0607 C.ar    1  UNL1        0.1205
      7 N         140.8437  140.5473  166.2124 N.ar    1  UNL1       -0.3107
      8 C         141.1632  141.3609  167.4314 C.ar    1  UNL1        0.0785
      9 C         140.4678  142.5258  168.0713 C.ar    1  UNL1        0.0142
     10 C         141.0347  143.1479  169.3129 C.ar    1  UNL1       -0.0243
     11 C         140.3393  144.3129  169.9528 C.3     1  UNL1        0.0307
     12 C         141.9828  138.4700  164.9744 C.3     1  UNL1        0.0640
     13 C         142.7604  138.7527  163.7233 C.3     1  UNL1        0.0102
     14 C         143.7914  139.8422  163.7111 C.3     1  UNL1        0.0176
     15 C         144.5690  140.1249  162.4600 C.3     1  UNL1        0.0685
     16 N         144.3157  139.3182  161.2210 N.3     1  UNL1       -0.2985
     17 C         143.2847  138.2287  161.2332 C.3     1  UNL1        0.0540
     18 C         143.0313  137.4220  159.9943 C.3     1  UNL1        0.0171
     19 C         142.5070  137.9460  162.4844 C.3     1  UNL1        0.0162
     20 H         145.2021  138.8819  160.9673 H       1  UNL1        0.1232
     21 C         139.6661  140.7446  165.3045 C.3     1  UNL1        0.1339
     22 C         139.5412  142.0053  164.5014 C.ar    1  UNL1        0.0005
     23 C         140.6526  142.4242  163.5852 C.ar    1  UNL1       -0.0015
     24 C         140.5278  143.6848  162.7820 C.ar    1  UNL1        0.0111
     25 C         139.2914  144.5267  162.8949 C.ar    1  UNL1        0.0577
     26 CL        139.1665  145.7873  162.0918 Cl      1  UNL1       -0.0822
     27 C         138.1799  144.1078  163.8110 C.ar    1  UNL1        0.0111
     28 C         138.3048  142.8471  164.6143 C.ar    1  UNL1       -0.0015
@<TRIPOS>BOND
     1     1     2    1
     2     2     3   ar
     3     3     4   ar
     4     4     5   ar
     5     5     6   ar
     6     6    12    1
     7    12    13    1
     8    13    14    1
     9    14    15    1
    10    15    16    1
    11    16    17    1
    12    17    18    1
    13    17    19    1
    14     6     7   ar
    15     7    21    1
    16    21    22    1
    17    22    23   ar
    18    23    24   ar
    19    24    25   ar
    20    25    26    1
    21    25    27   ar
    22    27    28   ar
    23     7     8   ar
    24     8     9   ar
    25     9    10   ar
    26    10    11    1
    27    10     2   ar
    28     8     4   ar
    29    19    13    1
    30    28    22   ar
    31    16    20    1
@<TRIPOS>MOLECULE
*****
 28 31 0 0 0
SMALL
GASTEIGER

@<TRIPOS>ATOM
      1 C         142.0383  145.9401  157.2397 C.3     1  UNL1        0.0307
      2 C         141.2733  144.9514  158.0687 C.ar    1  UNL1       -0.0242
      3 C         140.6378  145.3849  159.3564 C.ar    1  UNL1        0.0160
      4 C         139.8728  144.3961  160.1853 C.ar    1  UNL1        0.0980
      5 N         139.1437  144.5308  161.4894 N.ar    1  UNL1       -0.2310
      6 C         138.5638  143.1918  161.8366 C.ar    1  UNL1        0.1205
      7 N         138.9344  142.2295  160.7472 N.ar    1  UNL1       -0.3107
      8 C         139.7434  142.9739  159.7267 C.ar    1  UNL1        0.0785
      9 C         140.3790  142.5404  158.4390 C.ar    1  UNL1        0.0142
     10 C         141.1439  143.5291  157.6100 C.ar    1  UNL1       -0.0243
     11 C         141.7795  143.0956  156.3223 C.3     1  UNL1        0.0307
     12 C         137.7552  142.8712  163.0587 C.3     1  UNL1        0.0640
     13 C         138.4124  142.2342  164.2470 C.3     1  UNL1        0.0102
     14 C         139.5161  142.9506  164.9673 C.3     1  UNL1        0.0176
     15 C         140.1733  142.3137  166.1556 C.3     1  UNL1        0.0685
     16 N         139.7269  140.9603  166.6239 N.3     1  UNL1       -0.2985
     17 C         138.6232  140.2439  165.9037 C.3     1  UNL1        0.0540
     18 C         138.1768  138.8906  166.3718 C.3     1  UNL1        0.0171
     19 C         137.9660  140.8809  164.7152 C.3     1  UNL1        0.0162
     20 H         139.4250  141.0685  167.5921 H       1  UNL1        0.1232
     21 C         138.5615  140.7778  160.6886 C.3     1  UNL1        0.1339
     22 C         139.1947  139.8019  161.6355 C.ar    1  UNL1        0.0005
     23 C         138.4576  138.5578  162.0342 C.ar    1  UNL1       -0.0015
     24 C         139.0908  137.5819  162.9811 C.ar    1  UNL1        0.0111
     25 C         140.4610  137.8500  163.5294 C.ar    1  UNL1        0.0577
     26 CL        141.0942  136.8741  164.4763 Cl      1  UNL1       -0.0822
     27 C         141.1981  139.0941  163.1307 C.ar    1  UNL1        0.0111
     28 C         140.5649  140.0701  162.1837 C.ar    1  UNL1       -0.0015
@<TRIPOS>BOND
     1     1     2    1
     2     2     3   ar
     3     3     4   ar
     4     4     5   ar
     5     5     6   ar
     6     6    12    1
     7    12    13    1
     8    13    14    1
     9    14    15    1
    10    15    16    1
    11    16    17    1
    12    17    18    1
    13    17    19    1
    14     6     7   ar
    15     7    21    1
    16    21    22    1
    17    22    23   ar
    18    23    24   ar
    19    24    25   ar
    20    25    26    1
    21    25    27   ar
    22    27    28   ar
    23     7     8   ar
    24     8     9   ar
    25     9    10   ar
    26    10    11    1
    27    10     2   ar
    28     8     4   ar
    29    19    13    1
    30    28    22   ar
    31    16    20    1
@<TRIPOS>MOLECULE
*****
 28 31 0 0 0
SMALL
GASTEIGER

@<TRIPOS>ATOM
      1 C         143.8873  140.0053  158.2627 C.3     1  UNL1        0.0307
      2 C         143.7687  140.3491  159.7179 C.ar    1  UNL1       -0.0242
      3 C         143.7308  139.2574  160.7458 C.ar    1  UNL1        0.0160
      4 C         143.6122  139.6013  162.2011 C.ar    1  UNL1        0.0980
      5 N         143.5513  138.7470  163.4326 N.ar    1  UNL1       -0.2310
      6 C         143.4328  139.6546  164.6209 C.ar    1  UNL1        0.1205
      7 N         143.4205  141.0698  164.1239 N.ar    1  UNL1       -0.3107
      8 C         143.5314  141.0369  162.6284 C.ar    1  UNL1        0.0785
      9 C         143.5692  142.1285  161.6004 C.ar    1  UNL1        0.0142
     10 C         143.6878  141.7847  160.1452 C.ar    1  UNL1       -0.0243
     11 C         143.7256  142.8765  159.1172 C.3     1  UNL1        0.0307
     12 C         143.3424  139.2228  166.0546 C.3     1  UNL1        0.0640
     13 C         142.0619  139.4063  166.8139 C.3     1  UNL1        0.0102
     14 C         142.0979  139.7243  168.2794 C.3     1  UNL1        0.0176
     15 C         140.8174  139.9079  169.0387 C.3     1  UNL1        0.0685
     16 N         139.5008  139.7735  168.3325 N.3     1  UNL1       -0.2985
     17 C         139.4648  139.4555  166.8670 C.3     1  UNL1        0.0540
     18 C         138.1484  139.3211  166.1608 C.3     1  UNL1        0.0171
     19 C         140.7455  139.2719  166.1077 C.3     1  UNL1        0.0162
     20 H         139.0099  140.6593  168.4537 H       1  UNL1        0.1232
     21 C         143.3157  142.3017  164.9732 C.3     1  UNL1        0.1339
     22 C         141.9954  142.9966  165.1271 C.ar    1  UNL1        0.0005
     23 C         141.1293  142.7066  166.3170 C.ar    1  UNL1       -0.0015
     24 C         139.8089  143.4015  166.4709 C.ar    1  UNL1        0.0111
     25 C         139.3545  144.3864  165.4349 C.ar    1  UNL1        0.0577
     26 CL        138.0341  145.0813  165.5887 Cl      1  UNL1       -0.0822
     27 C         140.2205  144.6764  164.2449 C.ar    1  UNL1        0.0111
     28 C         141.5409  143.9815  164.0910 C.ar    1  UNL1       -0.0015
@<TRIPOS>BOND
     1     1     2    1
     2     2     3   ar
     3     3     4   ar
     4     4     5   ar
     5     5     6   ar
     6     6    12    1
     7    12    13    1
     8    13    14    1
     9    14    15    1
    10    15    16    1
    11    16    17    1
    12    17    18    1
    13    17    19    1
    14     6     7   ar
    15     7    21    1
    16    21    22    1
    17    22    23   ar
    18    23    24   ar
    19    24    25   ar
    20    25    26    1
    21    25    27   ar
    22    27    28   ar
    23     7     8   ar
    24     8     9   ar
    25     9    10   ar
    26    10    11    1
    27    10     2   ar
    28     8     4   ar
    29    19    13    1
    30    28    22   ar
    31    16    20    1
