@<TRIPOS>MOLECULE
*****
 31 35 0 0 0
SMALL
GASTEIGER

@<TRIPOS>ATOM
      1 C         141.4274  138.6882  163.8704 C.ar    1  UNL1        0.0878
      2 C         140.6927  137.8471  162.8690 C.ar    1  UNL1        0.0091
      3 C         139.2938  137.3886  163.1569 C.ar    1  UNL1        0.0194
      4 C         138.6296  137.7711  164.4463 C.ar    1  UNL1        0.0844
      5 N         139.3642  138.6122  165.4477 N.ar    1  UNL1       -0.2576
      6 C         138.7000  138.9948  166.7371 C.ar    1  UNL1        0.2672
      7 O         137.3012  138.5363  167.0250 O.2     1  UNL1       -0.2665
      8 C         139.4347  139.8359  167.7385 C.ar    1  UNL1        0.0742
      9 C         138.7705  140.2184  169.0279 C.ar    1  UNL1        0.0063
     10 C         139.5052  141.0595  170.0293 C.ar    1  UNL1        0.0003
     11 C         140.9041  141.5180  169.7414 C.ar    1  UNL1        0.0015
     12 C         141.6387  142.3591  170.7428 C.ar    1  UNL1        0.0000
     13 C         143.0376  142.8175  170.4549 C.ar    1  UNL1        0.0000
     14 C         143.7018  142.4350  169.1655 C.ar    1  UNL1        0.0000
     15 C         142.9672  141.5939  168.1641 C.ar    1  UNL1        0.0015
     16 C         141.5683  141.1354  168.4520 C.ar    1  UNL1        0.0179
     17 C         140.8336  140.2943  167.4506 C.ar    1  UNL1        0.0875
     18 N         141.4978  139.9118  166.1612 N.ar    1  UNL1       -0.2276
     19 C         140.7632  139.0707  165.1598 C.ar    1  UNL1        0.1543
     20 O         143.9257  138.8614  164.5623 O.2     1  UNL1       -0.2700
     21 C         142.8262  139.1466  163.5825 C.2     1  UNL1        0.2488
     22 N         143.1257  139.8904  162.3148 N.am    1  UNL1       -0.2994
     23 H         142.4042  140.0776  161.6717 H       1  UNL1        0.1498
     24 C         144.5247  140.3489  162.0269 C.3     1  UNL1        0.1070
     25 C         144.8005  141.8011  161.7720 C.3     1  UNL1        0.0936
     26 N         144.5360  142.8144  162.8459 N.3     1  UNL1       -0.2712
     27 C         143.9567  144.1512  162.4894 C.3     1  UNL1        0.0721
     28 C         143.6922  145.1646  163.5633 C.3     1  UNL1        0.0174
     29 C         144.0072  144.8411  164.9937 C.3     1  UNL1        0.0029
     30 C         144.5866  143.5042  165.3502 C.3     1  UNL1        0.0174
     31 C         144.8510  142.4909  164.2763 C.3     1  UNL1        0.0721
@<TRIPOS>BOND
     1    20    21    2
     2    21    22   am
     3    22    24    1
     4    24    25    1
     5    25    26    1
     6    26    27    1
     7    27    28    1
     8    28    29    1
     9    29    30    1
    10    30    31    1
    11    21     1    1
    12     1     2   ar
    13     2     3   ar
    14     3     4   ar
    15     4     5   ar
    16     5     6   ar
    17     6     7    2
    18     6     8   ar
    19     8     9   ar
    20     9    10   ar
    21    10    11   ar
    22    11    12   ar
    23    12    13   ar
    24    13    14   ar
    25    14    15   ar
    26    15    16   ar
    27    16    17   ar
    28    17    18   ar
    29    18    19   ar
    30    31    26    1
    31    19     1   ar
    32    19     5   ar
    33    17     8   ar
    34    16    11   ar
    35    22    23    1
@<TRIPOS>MOLECULE
*****
 31 35 0 0 0
SMALL
GASTEIGER

@<TRIPOS>ATOM
      1 C         141.3269  139.0256  163.5666 C.ar    1  UNL1        0.0878
      2 C         140.6044  138.2098  162.5357 C.ar    1  UNL1        0.0091
      3 C         139.2518  137.6393  162.8439 C.ar    1  UNL1        0.0194
      4 C         138.6217  137.8845  164.1828 C.ar    1  UNL1        0.0844
      5 N         139.3441  138.7003  165.2136 N.ar    1  UNL1       -0.2576
      6 C         138.7139  138.9455  166.5525 C.ar    1  UNL1        0.2672
      7 O         137.3613  138.3750  166.8607 O.2     1  UNL1       -0.2665
      8 C         139.4364  139.7613  167.5834 C.ar    1  UNL1        0.0742
      9 C         138.8062  140.0065  168.9223 C.ar    1  UNL1        0.0063
     10 C         139.5286  140.8223  169.9531 C.ar    1  UNL1        0.0003
     11 C         140.8813  141.3928  169.6451 C.ar    1  UNL1        0.0015
     12 C         141.6037  142.2085  170.6759 C.ar    1  UNL1        0.0000
     13 C         142.9563  142.7790  170.3678 C.ar    1  UNL1        0.0000
     14 C         143.5865  142.5338  169.0288 C.ar    1  UNL1        0.0000
     15 C         142.8641  141.7181  167.9980 C.ar    1  UNL1        0.0015
     16 C         141.5115  141.1476  168.3061 C.ar    1  UNL1        0.0179
     17 C         140.7890  140.3318  167.2753 C.ar    1  UNL1        0.0875
     18 N         141.4192  140.0865  165.9363 N.ar    1  UNL1       -0.2276
     19 C         140.6967  139.2708  164.9055 C.ar    1  UNL1        0.1543
     20 O         142.9516  140.1949  161.9103 O.2     1  UNL1       -0.2700
     21 C         142.6795  139.5961  163.2585 C.2     1  UNL1        0.2488
     22 N         143.7601  139.5677  164.2985 N.am    1  UNL1       -0.2994
     23 H         143.5816  139.1747  165.1833 H       1  UNL1        0.1498
     24 C         145.1127  140.1383  163.9903 C.3     1  UNL1        0.1070
     25 C         145.3876  141.5920  164.2375 C.3     1  UNL1        0.0936
     26 N         144.3738  142.6247  163.8428 N.3     1  UNL1       -0.2712
     27 C         143.2665  142.9879  164.7871 C.3     1  UNL1        0.0721
     28 C         142.2526  144.0206  164.3925 C.3     1  UNL1        0.0174
     29 C         142.3462  144.6900  163.0534 C.3     1  UNL1        0.0029
     30 C         143.4536  144.3267  162.1090 C.3     1  UNL1        0.0174
     31 C         144.4673  143.2941  162.5037 C.3     1  UNL1        0.0721
@<TRIPOS>BOND
     1    20    21    2
     2    21    22   am
     3    22    24    1
     4    24    25    1
     5    25    26    1
     6    26    27    1
     7    27    28    1
     8    28    29    1
     9    29    30    1
    10    30    31    1
    11    21     1    1
    12     1     2   ar
    13     2     3   ar
    14     3     4   ar
    15     4     5   ar
    16     5     6   ar
    17     6     7    2
    18     6     8   ar
    19     8     9   ar
    20     9    10   ar
    21    10    11   ar
    22    11    12   ar
    23    12    13   ar
    24    13    14   ar
    25    14    15   ar
    26    15    16   ar
    27    16    17   ar
    28    17    18   ar
    29    18    19   ar
    30    31    26    1
    31    19     1   ar
    32    19     5   ar
    33    17     8   ar
    34    16    11   ar
    35    22    23    1
@<TRIPOS>MOLECULE
*****
 31 35 0 0 0
SMALL
GASTEIGER

@<TRIPOS>ATOM
      1 C         139.2915  142.7328  160.8670 C.ar    1  UNL1        0.0878
      2 C         138.9317  142.5376  159.4239 C.ar    1  UNL1        0.0091
      3 C         138.3292  141.2412  158.9698 C.ar    1  UNL1        0.0194
      4 C         138.0866  140.1398  159.9588 C.ar    1  UNL1        0.0844
      5 N         138.4464  140.3349  161.4018 N.ar    1  UNL1       -0.2576
      6 C         138.2037  139.2335  162.3908 C.ar    1  UNL1        0.2672
      7 O         137.6013  137.9371  161.9368 O.2     1  UNL1       -0.2665
      8 C         138.5636  139.4286  163.8340 C.ar    1  UNL1        0.0742
      9 C         138.3210  138.3273  164.8229 C.ar    1  UNL1        0.0063
     10 C         138.6808  138.5223  166.2660 C.ar    1  UNL1        0.0003
     11 C         139.2833  139.8188  166.7201 C.ar    1  UNL1        0.0015
     12 C         139.6431  140.0139  168.1632 C.ar    1  UNL1        0.0000
     13 C         140.2456  141.3104  168.6172 C.ar    1  UNL1        0.0000
     14 C         140.4882  142.4117  167.6282 C.ar    1  UNL1        0.0000
     15 C         140.1284  142.2167  166.1852 C.ar    1  UNL1        0.0015
     16 C         139.5259  140.9202  165.7311 C.ar    1  UNL1        0.0179
     17 C         139.1661  140.7251  164.2880 C.ar    1  UNL1        0.0875
     18 N         139.4087  141.8265  163.2990 N.ar    1  UNL1       -0.2276
     19 C         139.0489  141.6314  161.8560 C.ar    1  UNL1        0.1543
     20 O         139.5973  145.2962  160.5748 O.2     1  UNL1       -0.2700
     21 C         139.8940  144.0292  161.3210 C.2     1  UNL1        0.2488
     22 N         140.7932  144.0588  162.5213 N.am    1  UNL1       -0.2994
     23 H         140.9879  143.2272  163.0111 H       1  UNL1        0.1498
     24 C         141.3956  145.3553  162.9753 C.3     1  UNL1        0.1070
     25 C         142.7628  145.3717  163.5922 C.3     1  UNL1        0.0936
     26 N         143.5385  144.0953  163.7306 N.3     1  UNL1       -0.2712
     27 C         143.4168  143.2756  164.9809 C.3     1  UNL1        0.0721
     28 C         144.1926  141.9992  165.1193 C.3     1  UNL1        0.0174
     29 C         145.0899  141.5426  164.0074 C.3     1  UNL1        0.0029
     30 C         145.2116  142.3624  162.7571 C.3     1  UNL1        0.0174
     31 C         144.4359  143.6387  162.6187 C.3     1  UNL1        0.0721
@<TRIPOS>BOND
     1    20    21    2
     2    21    22   am
     3    22    24    1
     4    24    25    1
     5    25    26    1
     6    26    27    1
     7    27    28    1
     8    28    29    1
     9    29    30    1
    10    30    31    1
    11    21     1    1
    12     1     2   ar
    13     2     3   ar
    14     3     4   ar
    15     4     5   ar
    16     5     6   ar
    17     6     7    2
    18     6     8   ar
    19     8     9   ar
    20     9    10   ar
    21    10    11   ar
    22    11    12   ar
    23    12    13   ar
    24    13    14   ar
    25    14    15   ar
    26    15    16   ar
    27    16    17   ar
    28    17    18   ar
    29    18    19   ar
    30    31    26    1
    31    19     1   ar
    32    19     5   ar
    33    17     8   ar
    34    16    11   ar
    35    22    23    1
@<TRIPOS>MOLECULE
*****
 31 35 0 0 0
SMALL
GASTEIGER

@<TRIPOS>ATOM
      1 C         141.7458  141.7718  168.3761 C.ar    1  UNL1        0.0878
      2 C         141.3183  142.0966  169.7768 C.ar    1  UNL1        0.0091
      3 C         140.0809  141.4697  170.3477 C.ar    1  UNL1        0.0194
      4 C         139.2710  140.5181  169.5179 C.ar    1  UNL1        0.0844
      5 N         139.6984  140.1933  168.1173 N.ar    1  UNL1       -0.2576
      6 C         138.8885  139.2417  167.2876 C.ar    1  UNL1        0.2672
      7 O         137.6511  138.6149  167.8585 O.2     1  UNL1       -0.2665
      8 C         139.3161  138.9169  165.8869 C.ar    1  UNL1        0.0742
      9 C         138.5062  137.9653  165.0572 C.ar    1  UNL1        0.0063
     10 C         138.9336  137.6405  163.6566 C.ar    1  UNL1        0.0003
     11 C         140.1711  138.2673  163.0857 C.ar    1  UNL1        0.0015
     12 C         140.5986  137.9425  161.6851 C.ar    1  UNL1        0.0000
     13 C         141.8359  138.5693  161.1142 C.ar    1  UNL1        0.0000
     14 C         142.6459  139.5209  161.9439 C.ar    1  UNL1        0.0000
     15 C         142.2184  139.8457  163.3445 C.ar    1  UNL1        0.0015
     16 C         140.9810  139.2189  163.9154 C.ar    1  UNL1        0.0179
     17 C         140.5535  139.5437  165.3161 C.ar    1  UNL1        0.0875
     18 N         141.3634  140.4953  166.1458 N.ar    1  UNL1       -0.2276
     19 C         140.9359  140.8201  167.5464 C.ar    1  UNL1        0.1543
     20 O         144.1087  142.7981  168.7129 O.2     1  UNL1       -0.2700
     21 C         142.9832  142.3986  167.8053 C.2     1  UNL1        0.2488
     22 N         143.0952  142.6259  166.3268 N.am    1  UNL1       -0.2994
     23 H         142.3565  142.3636  165.7311 H       1  UNL1        0.1498
     24 C         144.3326  143.2527  165.7560 C.3     1  UNL1        0.1070
     25 C         145.0079  142.6330  164.5686 C.3     1  UNL1        0.0936
     26 N         144.4216  142.8037  163.1986 N.3     1  UNL1       -0.2712
     27 C         143.1401  143.5626  163.0205 C.3     1  UNL1        0.0721
     28 C         142.5536  143.7333  161.6504 C.3     1  UNL1        0.0174
     29 C         143.2488  143.1450  160.4585 C.3     1  UNL1        0.0029
     30 C         144.5303  142.3861  160.6366 C.3     1  UNL1        0.0174
     31 C         145.1167  142.2154  162.0066 C.3     1  UNL1        0.0721
@<TRIPOS>BOND
     1    20    21    2
     2    21    22   am
     3    22    24    1
     4    24    25    1
     5    25    26    1
     6    26    27    1
     7    27    28    1
     8    28    29    1
     9    29    30    1
    10    30    31    1
    11    21     1    1
    12     1     2   ar
    13     2     3   ar
    14     3     4   ar
    15     4     5   ar
    16     5     6   ar
    17     6     7    2
    18     6     8   ar
    19     8     9   ar
    20     9    10   ar
    21    10    11   ar
    22    11    12   ar
    23    12    13   ar
    24    13    14   ar
    25    14    15   ar
    26    15    16   ar
    27    16    17   ar
    28    17    18   ar
    29    18    19   ar
    30    31    26    1
    31    19     1   ar
    32    19     5   ar
    33    17     8   ar
    34    16    11   ar
    35    22    23    1
@<TRIPOS>MOLECULE
*****
 31 35 0 0 0
SMALL
GASTEIGER

@<TRIPOS>ATOM
      1 C         139.5108  140.1004  167.1734 C.ar    1  UNL1        0.0878
      2 C         139.1152  139.8491  168.5984 C.ar    1  UNL1        0.0091
      3 C         139.9619  140.3806  169.7167 C.ar    1  UNL1        0.0194
      4 C         141.2042  141.1632  169.4101 C.ar    1  UNL1        0.0844
      5 N         141.5999  141.4145  167.9852 N.ar    1  UNL1       -0.2576
      6 C         142.8422  142.1972  167.6786 C.ar    1  UNL1        0.2672
      7 O         143.6889  142.7286  168.7969 O.2     1  UNL1       -0.2665
      8 C         143.2378  142.4484  166.2537 C.ar    1  UNL1        0.0742
      9 C         144.4801  143.2311  165.9471 C.ar    1  UNL1        0.0063
     10 C         144.8758  143.4824  164.5222 C.ar    1  UNL1        0.0003
     11 C         144.0290  142.9509  163.4038 C.ar    1  UNL1        0.0015
     12 C         144.4246  143.2022  161.9789 C.ar    1  UNL1        0.0000
     13 C         143.5779  142.6708  160.8607 C.ar    1  UNL1        0.0000
     14 C         142.3356  141.8881  161.1673 C.ar    1  UNL1        0.0000
     15 C         141.9399  141.6368  162.5921 C.ar    1  UNL1        0.0015
     16 C         142.7867  142.1682  163.7104 C.ar    1  UNL1        0.0179
     17 C         142.3911  141.9170  165.1354 C.ar    1  UNL1        0.0875
     18 N         141.1487  141.1343  165.4420 N.ar    1  UNL1       -0.2276
     19 C         140.7531  140.8831  166.8668 C.ar    1  UNL1        0.1543
     20 O         137.6148  138.5342  166.3353 O.2     1  UNL1       -0.2700
     21 C         138.6640  139.5690  166.0552 C.2     1  UNL1        0.2488
     22 N         138.8665  140.0723  164.6567 N.am    1  UNL1       -0.2994
     23 H         139.5551  140.7514  164.4728 H       1  UNL1        0.1498
     24 C         138.0197  139.5408  163.5384 C.3     1  UNL1        0.1070
     25 C         138.4440  138.3077  162.7971 C.3     1  UNL1        0.0936
     26 N         139.7932  138.2521  162.1441 N.3     1  UNL1       -0.2712
     27 C         139.9305  138.5476  160.6800 C.3     1  UNL1        0.0721
     28 C         141.2797  138.4921  160.0269 C.3     1  UNL1        0.0174
     29 C         142.4917  138.1410  160.8380 C.3     1  UNL1        0.0029
     30 C         142.3544  137.8455  162.3022 C.3     1  UNL1        0.0174
     31 C         141.0051  137.9011  162.9553 C.3     1  UNL1        0.0721
@<TRIPOS>BOND
     1    20    21    2
     2    21    22   am
     3    22    24    1
     4    24    25    1
     5    25    26    1
     6    26    27    1
     7    27    28    1
     8    28    29    1
     9    29    30    1
    10    30    31    1
    11    21     1    1
    12     1     2   ar
    13     2     3   ar
    14     3     4   ar
    15     4     5   ar
    16     5     6   ar
    17     6     7    2
    18     6     8   ar
    19     8     9   ar
    20     9    10   ar
    21    10    11   ar
    22    11    12   ar
    23    12    13   ar
    24    13    14   ar
    25    14    15   ar
    26    15    16   ar
    27    16    17   ar
    28    17    18   ar
    29    18    19   ar
    30    31    26    1
    31    19     1   ar
    32    19     5   ar
    33    17     8   ar
    34    16    11   ar
    35    22    23    1
@<TRIPOS>MOLECULE
*****
 31 35 0 0 0
SMALL
GASTEIGER

@<TRIPOS>ATOM
      1 C         140.1975  144.2992  160.2670 C.ar    1  UNL1        0.0878
      2 C         140.1701  144.9159  158.8998 C.ar    1  UNL1        0.0091
      3 C         139.6390  144.1343  157.7350 C.ar    1  UNL1        0.0194
      4 C         139.1352  142.7360  157.9372 C.ar    1  UNL1        0.0844
      5 N         139.1626  142.1192  159.3042 N.ar    1  UNL1       -0.2576
      6 C         138.6589  140.7209  159.5064 C.ar    1  UNL1        0.2672
      7 O         138.1278  139.9393  158.3415 O.2     1  UNL1       -0.2665
      8 C         138.6863  140.1042  160.8735 C.ar    1  UNL1        0.0742
      9 C         138.1825  138.7058  161.0757 C.ar    1  UNL1        0.0063
     10 C         138.2099  138.0891  162.4427 C.ar    1  UNL1        0.0003
     11 C         138.7410  138.8707  163.6077 C.ar    1  UNL1        0.0015
     12 C         138.7684  138.2540  164.9747 C.ar    1  UNL1        0.0000
     13 C         139.2995  139.0356  166.1396 C.ar    1  UNL1        0.0000
     14 C         139.8033  140.4339  165.9374 C.ar    1  UNL1        0.0000
     15 C         139.7759  141.0507  164.5704 C.ar    1  UNL1        0.0015
     16 C         139.2448  140.2691  163.4055 C.ar    1  UNL1        0.0179
     17 C         139.2174  140.8858  162.0384 C.ar    1  UNL1        0.0875
     18 N         139.7211  142.2841  161.8362 N.ar    1  UNL1       -0.2276
     19 C         139.6937  142.9009  160.4691 C.ar    1  UNL1        0.1543
     20 O         140.1534  146.4277  161.7561 O.2     1  UNL1       -0.2700
     21 C         140.7286  145.0808  161.4318 C.2     1  UNL1        0.2488
     22 N         141.8349  144.5156  162.2725 N.am    1  UNL1       -0.2994
     23 H         142.2124  143.6317  162.0596 H       1  UNL1        0.1498
     24 C         142.3660  145.2973  163.4374 C.3     1  UNL1        0.1070
     25 C         143.5860  144.8194  164.1676 C.3     1  UNL1        0.0936
     26 N         143.9197  143.3573  164.1938 N.3     1  UNL1       -0.2712
     27 C         144.9147  142.7976  163.2209 C.3     1  UNL1        0.0721
     28 C         145.2484  141.3353  163.2470 C.3     1  UNL1        0.0174
     29 C         144.5871  140.4329  164.2462 C.3     1  UNL1        0.0029
     30 C         143.5920  140.9927  165.2192 C.3     1  UNL1        0.0174
     31 C         143.2584  142.4549  165.1929 C.3     1  UNL1        0.0721
@<TRIPOS>BOND
     1    20    21    2
     2    21    22   am
     3    22    24    1
     4    24    25    1
     5    25    26    1
     6    26    27    1
     7    27    28    1
     8    28    29    1
     9    29    30    1
    10    30    31    1
    11    21     1    1
    12     1     2   ar
    13     2     3   ar
    14     3     4   ar
    15     4     5   ar
    16     5     6   ar
    17     6     7    2
    18     6     8   ar
    19     8     9   ar
    20     9    10   ar
    21    10    11   ar
    22    11    12   ar
    23    12    13   ar
    24    13    14   ar
    25    14    15   ar
    26    15    16   ar
    27    16    17   ar
    28    17    18   ar
    29    18    19   ar
    30    31    26    1
    31    19     1   ar
    32    19     5   ar
    33    17     8   ar
    34    16    11   ar
    35    22    23    1
@<TRIPOS>MOLECULE
*****
 31 35 0 0 0
SMALL
GASTEIGER

@<TRIPOS>ATOM
      1 C         141.2157  142.8143  163.0673 C.ar    1  UNL1        0.0878
      2 C         141.9105  143.4797  161.9163 C.ar    1  UNL1        0.0091
      3 C         143.2749  144.0733  162.1056 C.ar    1  UNL1        0.0194
      4 C         143.9446  144.0016  163.4459 C.ar    1  UNL1        0.0844
      5 N         143.2499  143.3364  164.5969 N.ar    1  UNL1       -0.2576
      6 C         143.9196  143.2647  165.9372 C.ar    1  UNL1        0.2672
      7 O         145.2841  143.8584  166.1265 O.2     1  UNL1       -0.2665
      8 C         143.2249  142.5994  167.0881 C.ar    1  UNL1        0.0742
      9 C         143.8946  142.5278  168.4284 C.ar    1  UNL1        0.0063
     10 C         143.1999  141.8625  169.5794 C.ar    1  UNL1        0.0003
     11 C         141.8354  141.2688  169.3901 C.ar    1  UNL1        0.0015
     12 C         141.1406  140.6035  170.5410 C.ar    1  UNL1        0.0000
     13 C         139.7762  140.0099  170.3517 C.ar    1  UNL1        0.0000
     14 C         139.1065  140.0816  169.0114 C.ar    1  UNL1        0.0000
     15 C         139.8012  140.7468  167.8605 C.ar    1  UNL1        0.0015
     16 C         141.1656  141.3405  168.0498 C.ar    1  UNL1        0.0179
     17 C         141.8604  142.0058  166.8988 C.ar    1  UNL1        0.0875
     18 N         141.1907  142.0774  165.5585 N.ar    1  UNL1       -0.2276
     19 C         141.8854  142.7427  164.4076 C.ar    1  UNL1        0.1543
     20 O         138.7745  142.4777  163.8902 O.2     1  UNL1       -0.2700
     21 C         139.8513  142.2207  162.8780 C.2     1  UNL1        0.2488
     22 N         139.5636  141.3701  161.6765 N.am    1  UNL1       -0.2994
     23 H         140.2703  141.2014  161.0121 H       1  UNL1        0.1498
     24 C         138.1990  140.7764  161.4872 C.3     1  UNL1        0.1070
     25 C         137.9052  139.3953  161.9932 C.3     1  UNL1        0.0936
     26 N         138.8867  138.7005  162.8899 N.3     1  UNL1       -0.2712
     27 C         139.9961  137.8835  162.2970 C.3     1  UNL1        0.0721
     28 C         140.9777  137.1887  163.1936 C.3     1  UNL1        0.0174
     29 C         140.8496  137.3109  164.6832 C.3     1  UNL1        0.0029
     30 C         139.7401  138.1279  165.2760 C.3     1  UNL1        0.0174
     31 C         138.7587  138.8227  164.3794 C.3     1  UNL1        0.0721
@<TRIPOS>BOND
     1    20    21    2
     2    21    22   am
     3    22    24    1
     4    24    25    1
     5    25    26    1
     6    26    27    1
     7    27    28    1
     8    28    29    1
     9    29    30    1
    10    30    31    1
    11    21     1    1
    12     1     2   ar
    13     2     3   ar
    14     3     4   ar
    15     4     5   ar
    16     5     6   ar
    17     6     7    2
    18     6     8   ar
    19     8     9   ar
    20     9    10   ar
    21    10    11   ar
    22    11    12   ar
    23    12    13   ar
    24    13    14   ar
    25    14    15   ar
    26    15    16   ar
    27    16    17   ar
    28    17    18   ar
    29    18    19   ar
    30    31    26    1
    31    19     1   ar
    32    19     5   ar
    33    17     8   ar
    34    16    11   ar
    35    22    23    1
@<TRIPOS>MOLECULE
*****
 31 35 0 0 0
SMALL
GASTEIGER

@<TRIPOS>ATOM
      1 C         142.9281  141.8574  163.6114 C.ar    1  UNL1        0.0878
      2 C         143.6139  141.2343  162.4317 C.ar    1  UNL1        0.0091
      3 C         144.2472  139.8807  162.5612 C.ar    1  UNL1        0.0194
      4 C         144.1948  139.1503  163.8703 C.ar    1  UNL1        0.0844
      5 N         143.5090  139.7734  165.0499 N.ar    1  UNL1       -0.2576
      6 C         143.4566  139.0429  166.3590 C.ar    1  UNL1        0.2672
      7 O         144.0899  137.6894  166.4885 O.2     1  UNL1       -0.2665
      8 C         142.7708  139.6661  167.5386 C.ar    1  UNL1        0.0742
      9 C         142.7184  138.9356  168.8477 C.ar    1  UNL1        0.0063
     10 C         142.0327  139.5587  170.0273 C.ar    1  UNL1        0.0003
     11 C         141.3993  140.9123  169.8978 C.ar    1  UNL1        0.0015
     12 C         140.7136  141.5354  171.0774 C.ar    1  UNL1        0.0000
     13 C         140.0802  142.8889  170.9479 C.ar    1  UNL1        0.0000
     14 C         140.1326  143.6193  169.6389 C.ar    1  UNL1        0.0000
     15 C         140.8184  142.9963  168.4593 C.ar    1  UNL1        0.0015
     16 C         141.4517  141.6427  168.5888 C.ar    1  UNL1        0.0179
     17 C         142.1375  141.0196  167.4091 C.ar    1  UNL1        0.0875
     18 N         142.1899  141.7500  166.1000 N.ar    1  UNL1       -0.2276
     19 C         142.8757  141.1270  164.9205 C.ar    1  UNL1        0.1543
     20 O         143.0346  144.3230  162.7992 O.2     1  UNL1       -0.2700
     21 C         142.2948  143.2109  163.4819 C.2     1  UNL1        0.2488
     22 N         140.9216  143.4525  164.0350 N.am    1  UNL1       -0.2994
     23 H         140.4360  142.7227  164.4831 H       1  UNL1        0.1498
     24 C         140.2882  144.8061  163.9055 C.3     1  UNL1        0.1070
     25 C         139.2390  145.0463  162.8608 C.3     1  UNL1        0.0936
     26 N         139.4773  144.6127  161.4449 N.3     1  UNL1       -0.2712
     27 C         140.2230  145.5092  160.5014 C.3     1  UNL1        0.0721
     28 C         140.4614  145.0755  159.0853 C.3     1  UNL1        0.0174
     29 C         139.9540  143.7453  158.6128 C.3     1  UNL1        0.0029
     30 C         139.2083  142.8488  159.5564 C.3     1  UNL1        0.0174
     31 C         138.9700  143.2825  160.9724 C.3     1  UNL1        0.0721
@<TRIPOS>BOND
     1    20    21    2
     2    21    22   am
     3    22    24    1
     4    24    25    1
     5    25    26    1
     6    26    27    1
     7    27    28    1
     8    28    29    1
     9    29    30    1
    10    30    31    1
    11    21     1    1
    12     1     2   ar
    13     2     3   ar
    14     3     4   ar
    15     4     5   ar
    16     5     6   ar
    17     6     7    2
    18     6     8   ar
    19     8     9   ar
    20     9    10   ar
    21    10    11   ar
    22    11    12   ar
    23    12    13   ar
    24    13    14   ar
    25    14    15   ar
    26    15    16   ar
    27    16    17   ar
    28    17    18   ar
    29    18    19   ar
    30    31    26    1
    31    19     1   ar
    32    19     5   ar
    33    17     8   ar
    34    16    11   ar
    35    22    23    1
@<TRIPOS>MOLECULE
*****
 31 35 0 0 0
SMALL
GASTEIGER

@<TRIPOS>ATOM
      1 C         143.5854  141.9292  163.7789 C.ar    1  UNL1        0.0878
      2 C         144.3430  141.2782  162.6598 C.ar    1  UNL1        0.0091
      3 C         144.8156  139.8614  162.7987 C.ar    1  UNL1        0.0194
      4 C         144.5307  139.0956  164.0566 C.ar    1  UNL1        0.0844
      5 N         143.7732  139.7466  165.1757 N.ar    1  UNL1       -0.2576
      6 C         143.4882  138.9807  166.4336 C.ar    1  UNL1        0.2672
      7 O         143.9608  137.5640  166.5724 O.2     1  UNL1       -0.2665
      8 C         142.7307  139.6318  167.5527 C.ar    1  UNL1        0.0742
      9 C         142.4457  138.8660  168.8106 C.ar    1  UNL1        0.0063
     10 C         141.6882  139.5170  169.9296 C.ar    1  UNL1        0.0003
     11 C         141.2156  140.9338  169.7908 C.ar    1  UNL1        0.0015
     12 C         140.4580  141.5848  170.9099 C.ar    1  UNL1        0.0000
     13 C         139.9854  143.0016  170.7710 C.ar    1  UNL1        0.0000
     14 C         140.2704  143.7674  169.5131 C.ar    1  UNL1        0.0000
     15 C         141.0279  143.1164  168.3941 C.ar    1  UNL1        0.0015
     16 C         141.5005  141.6996  168.5329 C.ar    1  UNL1        0.0179
     17 C         142.2581  141.0486  167.4138 C.ar    1  UNL1        0.0875
     18 N         142.5430  141.8144  166.1559 N.ar    1  UNL1       -0.2276
     19 C         143.3005  141.1634  165.0368 C.ar    1  UNL1        0.1543
     20 O         143.4989  144.3695  164.6665 O.2     1  UNL1       -0.2700
     21 C         143.1128  143.3460  163.6401 C.2     1  UNL1        0.2488
     22 N         142.2541  143.7394  162.4748 N.am    1  UNL1       -0.2994
     23 H         142.0007  143.0677  161.8011 H       1  UNL1        0.1498
     24 C         141.7815  145.1563  162.3360 C.3     1  UNL1        0.1070
     25 C         140.3135  145.4522  162.2502 C.3     1  UNL1        0.0936
     26 N         139.3278  144.5682  162.9549 N.3     1  UNL1       -0.2712
     27 C         138.6162  143.4860  162.1983 C.3     1  UNL1        0.0721
     28 C         137.6304  142.6019  162.9031 C.3     1  UNL1        0.0174
     29 C         137.3562  142.8000  164.3645 C.3     1  UNL1        0.0029
     30 C         138.0679  143.8822  165.1211 C.3     1  UNL1        0.0174
     31 C         139.0536  144.7663  164.4163 C.3     1  UNL1        0.0721
@<TRIPOS>BOND
     1    20    21    2
     2    21    22   am
     3    22    24    1
     4    24    25    1
     5    25    26    1
     6    26    27    1
     7    27    28    1
     8    28    29    1
     9    29    30    1
    10    30    31    1
    11    21     1    1
    12     1     2   ar
    13     2     3   ar
    14     3     4   ar
    15     4     5   ar
    16     5     6   ar
    17     6     7    2
    18     6     8   ar
    19     8     9   ar
    20     9    10   ar
    21    10    11   ar
    22    11    12   ar
    23    12    13   ar
    24    13    14   ar
    25    14    15   ar
    26    15    16   ar
    27    16    17   ar
    28    17    18   ar
    29    18    19   ar
    30    31    26    1
    31    19     1   ar
    32    19     5   ar
    33    17     8   ar
    34    16    11   ar
    35    22    23    1
