@<TRIPOS>MOLECULE
*****
 25 27 0 0 0
SMALL
GASTEIGER

@<TRIPOS>ATOM
      1 N         139.6885  138.7358  165.6713 N.am    1  UNL1       -0.2969
      2 C         138.8001  139.0746  166.8314 C.2     1  UNL1        0.2461
      3 O         137.3824  138.5854  166.8584 O.2     1  UNL1       -0.2701
      4 H         140.6190  139.0569  165.6536 H       1  UNL1        0.1501
      5 C         139.3295  139.9025  167.9647 C.ar    1  UNL1        0.0540
      6 C         138.5738  139.9737  169.2585 C.ar    1  UNL1        0.0061
      7 C         139.1032  140.8017  170.3917 C.ar    1  UNL1        0.0198
      8 C         140.3883  141.5584  170.2311 C.ar    1  UNL1        0.0892
      9 N         141.1511  142.4506  171.1651 N.ar    1  UNL1       -0.2245
     10 C         142.3782  142.9308  170.4485 C.ar    1  UNL1        0.1567
     11 N         143.4259  143.8458  171.0101 N.pl3   1  UNL1       -0.3375
     12 S         142.3739  142.3354  169.0718 S.2     1  UNL1       -0.0520
     13 C         141.1440  141.4873  168.9374 C.ar    1  UNL1        0.0498
     14 C         140.6146  140.6593  167.8042 C.ar    1  UNL1        0.0126
     15 H         143.3401  144.1865  171.9298 H       1  UNL1        0.1442
     16 H         144.1992  144.1056  170.4590 H       1  UNL1        0.1442
     17 C         139.1591  137.9078  164.5380 C.3     1  UNL1        0.1166
     18 C         138.3300  139.8202  160.5498 C.ar    1  UNL1        0.0684
     19 C         137.8082  140.4507  161.8069 C.ar    1  UNL1        0.0100
     20 C         138.0846  139.8132  163.1363 C.ar    1  UNL1       -0.0019
     21 C         138.8827  138.5453  163.2086 C.ar    1  UNL1       -0.0025
     22 C         139.4045  137.9148  161.9516 C.ar    1  UNL1       -0.0019
     23 C         139.1281  138.5522  160.6221 C.ar    1  UNL1        0.0100
     24 N         137.7773  141.0951  157.8911 N.1     1  UNL1       -0.1908
     25 C         138.0536  140.4577  159.2205 C.1     1  UNL1        0.1004
@<TRIPOS>BOND
     1    24    25    3
     2    25    18    1
     3    18    19   ar
     4    19    20   ar
     5    20    21   ar
     6    21    17    1
     7    17     1    1
     8     1     2   am
     9     2     3    2
    10     2     5    1
    11     5     6   ar
    12     6     7   ar
    13     7     8   ar
    14     8     9   ar
    15     9    10   ar
    16    10    11    1
    17    10    12   ar
    18    12    13   ar
    19    13    14   ar
    20    21    22   ar
    21    22    23   ar
    22    23    18   ar
    23    14     5   ar
    24    13     8   ar
    25     1     4    1
    26    11    15    1
    27    11    16    1
@<TRIPOS>MOLECULE
*****
 25 27 0 0 0
SMALL
GASTEIGER

@<TRIPOS>ATOM
      1 N         140.0206  138.7497  165.5265 N.am    1  UNL1       -0.2969
      2 C         139.0446  139.1739  166.5836 C.2     1  UNL1        0.2461
      3 O         137.5960  138.8052  166.4584 O.2     1  UNL1       -0.2701
      4 H         140.9713  138.9917  165.6087 H       1  UNL1        0.1501
      5 C         139.5173  139.9667  167.7661 C.ar    1  UNL1        0.0540
      6 C         138.7165  139.9715  169.0344 C.ar    1  UNL1        0.0061
      7 C         139.1891  140.7643  170.2167 C.ar    1  UNL1        0.0198
      8 C         140.4625  141.5523  170.1308 C.ar    1  UNL1        0.0892
      9 N         141.1738  142.4218  171.1249 N.ar    1  UNL1       -0.2245
     10 C         142.4142  142.9543  170.4709 C.ar    1  UNL1        0.1567
     11 N         143.4224  143.8671  171.1039 N.pl3   1  UNL1       -0.3375
     12 S         142.4696  142.4140  169.0727 S.2     1  UNL1       -0.0520
     13 C         141.2633  141.5475  168.8625 C.ar    1  UNL1        0.0498
     14 C         140.7907  140.7547  167.6801 C.ar    1  UNL1        0.0126
     15 H         143.2980  144.1693  172.0326 H       1  UNL1        0.1442
     16 H         144.2084  144.1638  170.5907 H       1  UNL1        0.1442
     17 C         139.5480  137.9569  164.3440 C.3     1  UNL1        0.1166
     18 C         141.7663  138.2050  160.4367 C.ar    1  UNL1        0.0684
     19 C         142.5081  137.8889  161.7016 C.ar    1  UNL1        0.0100
     20 C         141.7687  137.8063  163.0040 C.ar    1  UNL1       -0.0019
     21 C         140.2874  138.0396  163.0416 C.ar    1  UNL1       -0.0025
     22 C         139.5456  138.3556  161.7768 C.ar    1  UNL1       -0.0019
     23 C         140.2850  138.4383  160.4743 C.ar    1  UNL1        0.0100
     24 N         143.2452  138.3703  157.8318 N.1     1  UNL1       -0.1908
     25 C         142.5057  138.2876  159.1342 C.1     1  UNL1        0.1004
@<TRIPOS>BOND
     1    24    25    3
     2    25    18    1
     3    18    19   ar
     4    19    20   ar
     5    20    21   ar
     6    21    17    1
     7    17     1    1
     8     1     2   am
     9     2     3    2
    10     2     5    1
    11     5     6   ar
    12     6     7   ar
    13     7     8   ar
    14     8     9   ar
    15     9    10   ar
    16    10    11    1
    17    10    12   ar
    18    12    13   ar
    19    13    14   ar
    20    21    22   ar
    21    22    23   ar
    22    23    18   ar
    23    14     5   ar
    24    13     8   ar
    25     1     4    1
    26    11    15    1
    27    11    16    1
@<TRIPOS>MOLECULE
*****
 25 27 0 0 0
SMALL
GASTEIGER

@<TRIPOS>ATOM
      1 N         139.2830  140.8968  163.5587 N.am    1  UNL1       -0.2969
      2 C         138.3151  141.5315  162.6046 C.2     1  UNL1        0.2461
      3 O         136.8441  141.4994  162.8964 O.2     1  UNL1       -0.2701
      4 H         140.2485  140.9179  163.3672 H       1  UNL1        0.1501
      5 C         138.8183  142.1984  161.3588 C.ar    1  UNL1        0.0540
      6 C         138.2440  141.8255  160.0242 C.ar    1  UNL1        0.0061
      7 C         138.7471  142.4924  158.7784 C.ar    1  UNL1        0.0198
      8 C         139.8245  143.5323  158.8672 C.ar    1  UNL1        0.0892
      9 N         140.5149  144.3542  157.8193 N.ar    1  UNL1       -0.2245
     10 C         141.5159  145.2351  158.5064 C.ar    1  UNL1        0.1567
     11 N         142.4284  146.2206  157.8383 N.pl3   1  UNL1       -0.3375
     12 S         141.4441  144.9576  159.9787 S.2     1  UNL1       -0.0520
     13 C         140.3988  143.9052  160.2017 C.ar    1  UNL1        0.0498
     14 C         139.8957  143.2383  161.4475 C.ar    1  UNL1        0.0126
     15 H         142.4015  146.3320  156.8605 H       1  UNL1        0.1442
     16 H         143.0543  146.7559  158.3777 H       1  UNL1        0.1442
     17 C         138.7799  140.2299  164.8046 C.3     1  UNL1        0.1166
     18 C         140.3689  141.4804  168.8247 C.ar    1  UNL1        0.0684
     19 C         139.6614  140.1663  168.6735 C.ar    1  UNL1        0.0100
     20 C         139.1318  139.7495  167.3335 C.ar    1  UNL1       -0.0019
     21 C         139.3095  140.6467  166.1446 C.ar    1  UNL1       -0.0025
     22 C         140.0169  141.9607  166.2957 C.ar    1  UNL1       -0.0019
     23 C         140.5466  142.3776  167.6358 C.ar    1  UNL1        0.0100
     24 N         141.4282  142.3141  171.5047 N.1     1  UNL1       -0.1908
     25 C         140.8985  141.8973  170.1647 C.1     1  UNL1        0.1004
@<TRIPOS>BOND
     1    24    25    3
     2    25    18    1
     3    18    19   ar
     4    19    20   ar
     5    20    21   ar
     6    21    17    1
     7    17     1    1
     8     1     2   am
     9     2     3    2
    10     2     5    1
    11     5     6   ar
    12     6     7   ar
    13     7     8   ar
    14     8     9   ar
    15     9    10   ar
    16    10    11    1
    17    10    12   ar
    18    12    13   ar
    19    13    14   ar
    20    21    22   ar
    21    22    23   ar
    22    23    18   ar
    23    14     5   ar
    24    13     8   ar
    25     1     4    1
    26    11    15    1
    27    11    16    1
@<TRIPOS>MOLECULE
*****
 25 27 0 0 0
SMALL
GASTEIGER

@<TRIPOS>ATOM
      1 N         139.5069  141.5178  163.7438 N.am    1  UNL1       -0.2969
      2 C         140.8473  141.7467  163.1107 C.2     1  UNL1        0.2461
      3 O         142.0275  140.9238  163.5349 O.2     1  UNL1       -0.2701
      4 H         138.7323  142.0579  163.4654 H       1  UNL1        0.1501
      5 C         141.0075  142.7986  162.0533 C.ar    1  UNL1        0.0540
      6 C         140.5307  144.1976  162.3088 C.ar    1  UNL1        0.0061
      7 C         140.6909  145.2494  161.2514 C.ar    1  UNL1        0.0198
      8 C         141.3280  144.9021  159.9386 C.ar    1  UNL1        0.0892
      9 N         141.6184  145.7214  158.7160 N.ar    1  UNL1       -0.2245
     10 C         142.2748  144.8287  157.7050 C.ar    1  UNL1        0.1567
     11 N         142.7351  145.2354  156.3365 N.pl3   1  UNL1       -0.3375
     12 S         142.3900  143.4577  158.3027 S.2     1  UNL1       -0.0520
     13 C         141.8048  143.5031  159.6831 C.ar    1  UNL1        0.0498
     14 C         141.6446  142.4513  160.7404 C.ar    1  UNL1        0.0126
     15 H         142.6152  146.1641  156.0326 H       1  UNL1        0.1442
     16 H         143.1572  144.5737  155.7422 H       1  UNL1        0.1442
     17 C         139.3467  140.4659  164.8012 C.3     1  UNL1        0.1166
     18 C         140.1623  141.4665  169.1121 C.ar    1  UNL1        0.0684
     19 C         139.5468  140.1468  168.7519 C.ar    1  UNL1        0.0100
     20 C         139.2749  139.8133  167.3149 C.ar    1  UNL1       -0.0019
     21 C         139.6185  140.7994  166.2381 C.ar    1  UNL1       -0.0025
     22 C         140.2340  142.1191  166.5983 C.ar    1  UNL1       -0.0019
     23 C         140.5059  142.4526  168.0353 C.ar    1  UNL1        0.0100
     24 N         140.7059  142.1335  171.9859 N.1     1  UNL1       -0.1908
     25 C         140.4341  141.8000  170.5490 C.1     1  UNL1        0.1004
@<TRIPOS>BOND
     1    24    25    3
     2    25    18    1
     3    18    19   ar
     4    19    20   ar
     5    20    21   ar
     6    21    17    1
     7    17     1    1
     8     1     2   am
     9     2     3    2
    10     2     5    1
    11     5     6   ar
    12     6     7   ar
    13     7     8   ar
    14     8     9   ar
    15     9    10   ar
    16    10    11    1
    17    10    12   ar
    18    12    13   ar
    19    13    14   ar
    20    21    22   ar
    21    22    23   ar
    22    23    18   ar
    23    14     5   ar
    24    13     8   ar
    25     1     4    1
    26    11    15    1
    27    11    16    1
@<TRIPOS>MOLECULE
*****
 25 27 0 0 0
SMALL
GASTEIGER

@<TRIPOS>ATOM
      1 N         138.3609  139.3497  165.2701 N.am    1  UNL1       -0.2969
      2 C         139.2423  138.5927  164.3215 C.2     1  UNL1        0.2461
      3 O         140.2582  137.6249  164.8519 O.2     1  UNL1       -0.2701
      4 H         137.6941  139.9850  164.9220 H       1  UNL1        0.1501
      5 C         139.1080  138.8035  162.8424 C.ar    1  UNL1        0.0540
      6 C         137.8203  139.3202  162.2724 C.ar    1  UNL1        0.0061
      7 C         137.6860  139.5309  160.7934 C.ar    1  UNL1        0.0198
      8 C         138.8394  139.2251  159.8844 C.ar    1  UNL1        0.0892
      9 N         139.0010  139.3325  158.3970 N.ar    1  UNL1       -0.2245
     10 C         140.3885  138.8822  158.0478 C.ar    1  UNL1        0.1567
     11 N         140.9769  138.8273  156.6690 N.pl3   1  UNL1       -0.3375
     12 S         141.0844  138.4965  159.3194 S.2     1  UNL1       -0.0520
     13 C         140.1270  138.7084  160.4545 C.ar    1  UNL1        0.0498
     14 C         140.2613  138.4976  161.9335 C.ar    1  UNL1        0.0126
     15 H         140.4381  139.1030  155.8926 H       1  UNL1        0.1442
     16 H         141.9019  138.5156  156.5406 H       1  UNL1        0.1442
     17 C         138.4952  139.1389  166.7492 C.3     1  UNL1        0.1166
     18 C         141.1238  141.8643  169.1807 C.ar    1  UNL1        0.0684
     19 C         140.0859  141.0209  169.8601 C.ar    1  UNL1        0.0100
     20 C         139.2097  140.1125  169.0496 C.ar    1  UNL1       -0.0019
     21 C         139.3714  140.0474  167.5597 C.ar    1  UNL1       -0.0025
     22 C         140.4092  140.8908  166.8804 C.ar    1  UNL1       -0.0019
     23 C         141.2855  141.7993  167.6909 C.ar    1  UNL1        0.0100
     24 N         142.8762  143.6812  170.8018 N.1     1  UNL1       -0.1908
     25 C         142.0000  142.7728  169.9913 C.1     1  UNL1        0.1004
@<TRIPOS>BOND
     1    24    25    3
     2    25    18    1
     3    18    19   ar
     4    19    20   ar
     5    20    21   ar
     6    21    17    1
     7    17     1    1
     8     1     2   am
     9     2     3    2
    10     2     5    1
    11     5     6   ar
    12     6     7   ar
    13     7     8   ar
    14     8     9   ar
    15     9    10   ar
    16    10    11    1
    17    10    12   ar
    18    12    13   ar
    19    13    14   ar
    20    21    22   ar
    21    22    23   ar
    22    23    18   ar
    23    14     5   ar
    24    13     8   ar
    25     1     4    1
    26    11    15    1
    27    11    16    1
@<TRIPOS>MOLECULE
*****
 25 27 0 0 0
SMALL
GASTEIGER

@<TRIPOS>ATOM
      1 N         137.7863  141.9231  164.2612 N.am    1  UNL1       -0.2969
      2 C         139.0341  141.1857  164.6475 C.2     1  UNL1        0.2461
      3 O         139.9237  140.6094  163.5861 O.2     1  UNL1       -0.2701
      4 H         137.2025  142.3014  164.9578 H       1  UNL1        0.1501
      5 C         139.3924  141.0246  166.0952 C.ar    1  UNL1        0.0540
      6 C         138.8524  139.8637  166.8767 C.ar    1  UNL1        0.0061
      7 C         139.2107  139.7026  168.3243 C.ar    1  UNL1        0.0198
      8 C         140.1089  140.7024  168.9904 C.ar    1  UNL1        0.0892
      9 N         140.6320  140.8041  170.3926 N.ar    1  UNL1       -0.2245
     10 C         141.4953  142.0279  170.4776 C.ar    1  UNL1        0.1567
     11 N         142.2207  142.5121  171.6980 N.pl3   1  UNL1       -0.3375
     12 S         141.5057  142.6824  169.1280 S.2     1  UNL1       -0.0520
     13 C         140.6489  141.8632  168.2089 C.ar    1  UNL1        0.0498
     14 C         140.2906  142.0243  166.7612 C.ar    1  UNL1        0.0126
     15 H         142.1519  142.0112  172.5427 H       1  UNL1        0.1442
     16 H         142.7657  143.3308  171.6542 H       1  UNL1        0.1442
     17 C         137.4281  142.0843  162.8135 C.3     1  UNL1        0.1166
     18 C         140.1568  144.3711  160.0613 C.ar    1  UNL1        0.0684
     19 C         139.9535  144.8365  161.4728 C.ar    1  UNL1        0.0100
     20 C         139.0439  144.0742  162.3902 C.ar    1  UNL1       -0.0019
     21 C         138.3376  142.8466  161.8962 C.ar    1  UNL1       -0.0025
     22 C         138.5409  142.3812  160.4848 C.ar    1  UNL1       -0.0019
     23 C         139.4505  143.1435  159.5673 C.ar    1  UNL1        0.0100
     24 N         141.9759  145.8957  158.2266 N.1     1  UNL1       -0.1908
     25 C         141.0663  145.1334  159.1440 C.1     1  UNL1        0.1004
@<TRIPOS>BOND
     1    24    25    3
     2    25    18    1
     3    18    19   ar
     4    19    20   ar
     5    20    21   ar
     6    21    17    1
     7    17     1    1
     8     1     2   am
     9     2     3    2
    10     2     5    1
    11     5     6   ar
    12     6     7   ar
    13     7     8   ar
    14     8     9   ar
    15     9    10   ar
    16    10    11    1
    17    10    12   ar
    18    12    13   ar
    19    13    14   ar
    20    21    22   ar
    21    22    23   ar
    22    23    18   ar
    23    14     5   ar
    24    13     8   ar
    25     1     4    1
    26    11    15    1
    27    11    16    1
@<TRIPOS>MOLECULE
*****
 25 27 0 0 0
SMALL
GASTEIGER

@<TRIPOS>ATOM
      1 N         138.3261  139.5102  165.6375 N.am    1  UNL1       -0.2969
      2 C         139.2440  138.8466  164.6541 C.2     1  UNL1        0.2461
      3 O         140.3609  137.9726  165.1425 O.2     1  UNL1       -0.2701
      4 H         137.5930  140.0838  165.3170 H       1  UNL1        0.1501
      5 C         139.0449  139.0570  163.1823 C.ar    1  UNL1        0.0540
      6 C         139.0568  137.8832  162.2485 C.ar    1  UNL1        0.0061
      7 C         138.8577  138.0937  160.7768 C.ar    1  UNL1        0.0198
      8 C         138.6468  139.4779  160.2389 C.ar    1  UNL1        0.0892
      9 N         138.4254  139.9908  158.8467 N.ar    1  UNL1       -0.2245
     10 C         138.2766  141.4816  158.9202 C.ar    1  UNL1        0.1567
     11 N         138.0399  142.4024  157.7599 N.pl3   1  UNL1       -0.3375
     12 S         138.4061  141.8901  160.3577 S.2     1  UNL1       -0.0520
     13 C         138.6349  140.6517  161.1727 C.ar    1  UNL1        0.0498
     14 C         138.8340  140.4413  162.6444 C.ar    1  UNL1        0.0126
     15 H         137.9690  142.0373  156.8483 H       1  UNL1        0.1442
     16 H         137.9555  143.3717  157.9099 H       1  UNL1        0.1442
     17 C         138.5251  139.2997  167.1094 C.3     1  UNL1        0.1166
     18 C         141.2700  142.0160  169.4197 C.ar    1  UNL1        0.0684
     19 C         141.3805  141.9321  167.9261 C.ar    1  UNL1        0.0100
     20 C         140.4656  141.0267  167.1560 C.ar    1  UNL1       -0.0019
     21 C         139.4401  140.2052  167.8794 C.ar    1  UNL1       -0.0025
     22 C         139.3295  140.2890  169.3730 C.ar    1  UNL1       -0.0019
     23 C         140.2445  141.1944  170.1431 C.ar    1  UNL1        0.0100
     24 N         143.0998  143.8268  170.9599 N.1     1  UNL1       -0.1908
     25 C         142.1849  142.9214  170.1898 C.1     1  UNL1        0.1004
@<TRIPOS>BOND
     1    24    25    3
     2    25    18    1
     3    18    19   ar
     4    19    20   ar
     5    20    21   ar
     6    21    17    1
     7    17     1    1
     8     1     2   am
     9     2     3    2
    10     2     5    1
    11     5     6   ar
    12     6     7   ar
    13     7     8   ar
    14     8     9   ar
    15     9    10   ar
    16    10    11    1
    17    10    12   ar
    18    12    13   ar
    19    13    14   ar
    20    21    22   ar
    21    22    23   ar
    22    23    18   ar
    23    14     5   ar
    24    13     8   ar
    25     1     4    1
    26    11    15    1
    27    11    16    1
@<TRIPOS>MOLECULE
*****
 25 27 0 0 0
SMALL
GASTEIGER

@<TRIPOS>ATOM
      1 N         139.6771  139.0454  163.9610 N.am    1  UNL1       -0.2969
      2 C         140.9497  138.2859  163.7300 C.2     1  UNL1        0.2461
      3 O         141.5901  137.5343  164.8592 O.2     1  UNL1       -0.2701
      4 H         139.2568  139.5387  163.2198 H       1  UNL1        0.1501
      5 C         141.5821  138.2779  162.3698 C.ar    1  UNL1        0.0540
      6 C         143.0655  138.1025  162.2334 C.ar    1  UNL1        0.0061
      7 C         143.6978  138.0946  160.8732 C.ar    1  UNL1        0.0198
      8 C         142.8467  138.2619  159.6495 C.ar    1  UNL1        0.0892
      9 N         143.1850  138.2952  158.1884 N.ar    1  UNL1       -0.2245
     10 C         141.9106  138.4911  157.4219 C.ar    1  UNL1        0.1567
     11 N         141.7842  138.5831  155.9300 N.pl3   1  UNL1       -0.3375
     12 S         140.7847  138.5789  158.4092 S.2     1  UNL1       -0.0520
     13 C         141.3632  138.4372  159.7859 C.ar    1  UNL1        0.0498
     14 C         140.7310  138.4452  161.1460 C.ar    1  UNL1        0.0126
     15 H         142.5860  138.5136  155.3629 H       1  UNL1        0.1442
     16 H         140.8996  138.7129  155.5180 H       1  UNL1        0.1442
     17 C         139.0447  139.0534  165.3212 C.3     1  UNL1        0.1166
     18 C         140.2690  142.1447  168.3536 C.ar    1  UNL1        0.0684
     19 C         140.3668  142.4513  166.8884 C.ar    1  UNL1        0.0100
     20 C         139.9587  141.4209  165.8777 C.ar    1  UNL1       -0.0019
     21 C         139.4528  140.0838  166.3320 C.ar    1  UNL1       -0.0025
     22 C         139.3550  139.7772  167.7970 C.ar    1  UNL1       -0.0019
     23 C         139.7631  140.8076  168.8078 C.ar    1  UNL1        0.0100
     24 N         141.0852  144.2055  170.3751 N.1     1  UNL1       -0.1908
     25 C         140.6771  143.1751  169.3643 C.1     1  UNL1        0.1004
@<TRIPOS>BOND
     1    24    25    3
     2    25    18    1
     3    18    19   ar
     4    19    20   ar
     5    20    21   ar
     6    21    17    1
     7    17     1    1
     8     1     2   am
     9     2     3    2
    10     2     5    1
    11     5     6   ar
    12     6     7   ar
    13     7     8   ar
    14     8     9   ar
    15     9    10   ar
    16    10    11    1
    17    10    12   ar
    18    12    13   ar
    19    13    14   ar
    20    21    22   ar
    21    22    23   ar
    22    23    18   ar
    23    14     5   ar
    24    13     8   ar
    25     1     4    1
    26    11    15    1
    27    11    16    1
@<TRIPOS>MOLECULE
*****
 25 27 0 0 0
SMALL
GASTEIGER

@<TRIPOS>ATOM
      1 N         140.4344  139.0492  164.1794 N.am    1  UNL1       -0.2969
      2 C         141.8772  138.7834  163.8670 C.2     1  UNL1        0.2461
      3 O         142.8195  138.3794  164.9619 O.2     1  UNL1       -0.2701
      4 H         139.8159  139.3144  163.4607 H       1  UNL1        0.1501
      5 C         142.3778  138.9215  162.4597 C.ar    1  UNL1        0.0540
      6 C         142.4131  137.7253  161.5554 C.ar    1  UNL1        0.0061
      7 C         142.9136  137.8635  160.1482 C.ar    1  UNL1        0.0198
      8 C         143.3788  139.1979  159.6453 C.ar    1  UNL1        0.0892
      9 N         143.9200  139.6368  158.3169 N.ar    1  UNL1       -0.2245
     10 C         144.2192  141.1043  158.4002 C.ar    1  UNL1        0.1567
     11 N         144.7767  141.9545  157.2974 N.pl3   1  UNL1       -0.3375
     12 S         143.8628  141.5723  159.7801 S.2     1  UNL1       -0.0520
     13 C         143.3435  140.3941  160.5495 C.ar    1  UNL1        0.0498
     14 C         142.8429  140.2559  161.9568 C.ar    1  UNL1        0.0126
     15 H         144.9798  141.5536  156.4214 H       1  UNL1        0.1442
     16 H         144.9396  142.9135  157.4495 H       1  UNL1        0.1442
     17 C         139.9339  138.9111  165.5867 C.3     1  UNL1        0.1166
     18 C         140.2232  142.3876  168.4291 C.ar    1  UNL1        0.0684
     19 C         139.9001  141.0183  168.9494 C.ar    1  UNL1        0.0100
     20 C         139.8037  139.8595  168.0019 C.ar    1  UNL1       -0.0019
     21 C         140.0303  140.0699  166.5342 C.ar    1  UNL1       -0.0025
     22 C         140.3534  141.4391  166.0139 C.ar    1  UNL1       -0.0019
     23 C         140.4498  142.5981  166.9614 C.ar    1  UNL1        0.0100
     24 N         140.4161  144.7053  170.3241 N.1     1  UNL1       -0.1908
     25 C         140.3196  143.5465  169.3766 C.1     1  UNL1        0.1004
@<TRIPOS>BOND
     1    24    25    3
     2    25    18    1
     3    18    19   ar
     4    19    20   ar
     5    20    21   ar
     6    21    17    1
     7    17     1    1
     8     1     2   am
     9     2     3    2
    10     2     5    1
    11     5     6   ar
    12     6     7   ar
    13     7     8   ar
    14     8     9   ar
    15     9    10   ar
    16    10    11    1
    17    10    12   ar
    18    12    13   ar
    19    13    14   ar
    20    21    22   ar
    21    22    23   ar
    22    23    18   ar
    23    14     5   ar
    24    13     8   ar
    25     1     4    1
    26    11    15    1
    27    11    16    1
