@<TRIPOS>MOLECULE
*****
 25 27 0 0 0
SMALL
GASTEIGER

@<TRIPOS>ATOM
      1 C         139.8223  138.3817  164.8876 C.3     1  UNL1        0.2469
      2 C         138.2788  137.5707  165.8823 C.3     1  UNL1        0.0497
      3 C         139.2161  138.6907  166.2244 C.3     1  UNL1        0.1969
      4 C         140.2801  139.7461  166.2870 C.3     1  UNL1        0.1543
      5 N         140.1355  140.4732  167.5910 N.ar    1  UNL1       -0.2713
      6 C         140.7038  141.5749  168.4356 C.ar    1  UNL1        0.1780
      7 C         139.9017  141.6497  169.7009 C.ar    1  UNL1        0.3976
      8 N         138.8376  140.5943  169.6383 N.ar    1  UNL1       -0.1275
      9 C         138.9822  139.8672  168.3343 C.ar    1  UNL1        0.3058
     10 O         138.4139  138.7655  167.4896 O.3     1  UNL1       -0.4493
     11 N         140.1244  142.6111  170.8304 N.pl3   1  UNL1        0.1030
     12 O         139.7941  144.0639  170.6551 O.2     1  UNL1        0.0432
     13 O         140.6774  142.1200  172.1354 O.co2   1  UNL1       -0.5746
     14 O         139.0705  138.7049  163.6304 O.3     1  UNL1       -0.4716
     15 C         138.9027  140.1328  163.2030 C.ar    1  UNL1        0.1389
     16 C         137.5914  140.8299  163.4146 C.ar    1  UNL1        0.0400
     17 C         137.4235  142.2579  162.9872 C.ar    1  UNL1        0.0403
     18 C         138.5669  142.9888  162.3481 C.ar    1  UNL1        0.1470
     19 C         139.8781  142.2918  162.1364 C.ar    1  UNL1        0.0403
     20 C         140.0460  140.8638  162.5639 C.ar    1  UNL1        0.0400
     21 O         138.3990  144.4168  161.9207 O.3     1  UNL1       -0.4045
     22 C         139.5027  145.4049  162.1565 C.3     1  UNL1        0.5753
     23 F         140.6063  146.3931  162.3923 F       1  UNL1       -0.1328
     24 F         139.7666  145.4623  160.6809 F       1  UNL1       -0.1328
     25 F         139.2388  145.3476  163.6319 F       1  UNL1       -0.1328
@<TRIPOS>UNITY_ATOM_ATTR
11 1
charge 1
13 1
charge -1
@<TRIPOS>BOND
     1     3     2    1
     2     3     1    1
     3     1    14    1
     4    14    15    1
     5    15    16   ar
     6    16    17   ar
     7    17    18   ar
     8    18    21    1
     9    21    22    1
    10    22    23    1
    11    22    24    1
    12    22    25    1
    13    18    19   ar
    14    19    20   ar
    15     3     4    1
    16     4     5    1
    17     5     6   ar
    18     6     7   ar
    19     7    11    1
    20    11    12    2
    21    11    13    1
    22     7     8   ar
    23     8     9   ar
    24     9    10    1
    25    10     3    1
    26    20    15   ar
    27     9     5   ar
@<TRIPOS>MOLECULE
*****
 25 27 0 0 0
SMALL
GASTEIGER

@<TRIPOS>ATOM
      1 C         137.6845  141.9578  163.4267 C.3     1  UNL1        0.2469
      2 C         137.6599  143.7400  164.3500 C.3     1  UNL1        0.0497
      3 C         138.1838  143.3100  163.0119 C.3     1  UNL1        0.1969
      4 C         138.6033  142.5973  161.7605 C.3     1  UNL1        0.1543
      5 N         139.2523  143.5991  160.8520 N.ar    1  UNL1       -0.2713
      6 C         139.9126  143.7777  159.5171 C.ar    1  UNL1        0.1780
      7 C         140.3024  145.2199  159.3820 C.ar    1  UNL1        0.3976
      8 N         139.8829  145.9326  160.6335 N.ar    1  UNL1       -0.1275
      9 C         139.2339  144.9309  161.5419 C.ar    1  UNL1        0.3058
     10 O         138.5735  144.7522  162.8769 O.3     1  UNL1       -0.4493
     11 N         140.9907  145.8404  158.2026 N.pl3   1  UNL1        0.1030
     12 O         142.4892  145.8775  158.1428 O.2     1  UNL1        0.0432
     13 O         140.1808  146.4239  157.0830 O.co2   1  UNL1       -0.5746
     14 O         138.6588  140.8847  163.8134 O.3     1  UNL1       -0.4716
     15 C         138.8890  140.5670  165.2611 C.ar    1  UNL1        0.1389
     16 C         139.9084  141.3388  166.0455 C.ar    1  UNL1        0.0400
     17 C         140.1386  141.0211  167.4932 C.ar    1  UNL1        0.0403
     18 C         139.3495  139.9315  168.1567 C.ar    1  UNL1        0.1470
     19 C         138.3302  139.1597  167.3724 C.ar    1  UNL1        0.0403
     20 C         138.0999  139.4774  165.9245 C.ar    1  UNL1        0.0400
     21 O         139.5797  139.6138  169.6044 O.3     1  UNL1       -0.4045
     22 C         140.7340  140.2345  170.3342 C.3     1  UNL1        0.5753
     23 F         141.8882  140.8551  171.0639 F       1  UNL1       -0.1328
     24 F         139.8837  141.4246  170.6669 F       1  UNL1       -0.1328
     25 F         141.5842  139.0444  170.0014 F       1  UNL1       -0.1328
@<TRIPOS>UNITY_ATOM_ATTR
11 1
charge 1
13 1
charge -1
@<TRIPOS>BOND
     1     3     2    1
     2     3     1    1
     3     1    14    1
     4    14    15    1
     5    15    16   ar
     6    16    17   ar
     7    17    18   ar
     8    18    21    1
     9    21    22    1
    10    22    23    1
    11    22    24    1
    12    22    25    1
    13    18    19   ar
    14    19    20   ar
    15     3     4    1
    16     4     5    1
    17     5     6   ar
    18     6     7   ar
    19     7    11    1
    20    11    12    2
    21    11    13    1
    22     7     8   ar
    23     8     9   ar
    24     9    10    1
    25    10     3    1
    26    20    15   ar
    27     9     5   ar
@<TRIPOS>MOLECULE
*****
 25 27 0 0 0
SMALL
GASTEIGER

@<TRIPOS>ATOM
      1 C         145.5728  141.8578  163.4553 C.3     1  UNL1        0.2469
      2 C         144.9512  142.7964  165.1173 C.3     1  UNL1        0.0497
      3 C         144.4615  142.8351  163.7000 C.3     1  UNL1        0.1969
      4 C         144.2040  142.6694  162.2316 C.3     1  UNL1        0.1543
      5 N         143.0360  143.5362  161.8651 N.ar    1  UNL1       -0.2713
      6 C         142.1550  143.9695  160.7311 C.ar    1  UNL1        0.1780
      7 C         141.1460  144.9388  161.2721 C.ar    1  UNL1        0.3976
      8 N         141.4035  145.1044  162.7406 N.ar    1  UNL1       -0.1275
      9 C         142.5715  144.2376  163.1070 C.ar    1  UNL1        0.3058
     10 O         143.4525  143.8043  164.2411 O.3     1  UNL1       -0.4493
     11 N         140.0689  145.6223  160.4832 N.pl3   1  UNL1        0.1030
     12 O         139.1814  146.6341  161.1456 O.2     1  UNL1        0.0432
     13 O         139.8790  145.2940  159.0320 O.co2   1  UNL1       -0.5746
     14 O         145.5173  140.4900  164.0686 O.3     1  UNL1       -0.4716
     15 C         144.3288  139.6074  163.8272 C.ar    1  UNL1        0.1389
     16 C         143.3494  139.3490  164.9337 C.ar    1  UNL1        0.0400
     17 C         142.1608  138.4664  164.6922 C.ar    1  UNL1        0.0403
     18 C         141.9516  137.8422  163.3444 C.ar    1  UNL1        0.1470
     19 C         142.9309  138.1006  162.2380 C.ar    1  UNL1        0.0403
     20 C         144.1195  138.9832  162.4794 C.ar    1  UNL1        0.0400
     21 O         140.7630  136.9596  163.1030 O.3     1  UNL1       -0.4045
     22 C         139.4044  137.5665  162.9132 C.3     1  UNL1        0.5753
     23 F         138.0459  138.1733  162.7233 F       1  UNL1       -0.1328
     24 F         139.1011  137.3416  164.3650 F       1  UNL1       -0.1328
     25 F         139.7077  137.7913  161.4615 F       1  UNL1       -0.1328
@<TRIPOS>UNITY_ATOM_ATTR
11 1
charge 1
13 1
charge -1
@<TRIPOS>BOND
     1     3     2    1
     2     3     1    1
     3     1    14    1
     4    14    15    1
     5    15    16   ar
     6    16    17   ar
     7    17    18   ar
     8    18    21    1
     9    21    22    1
    10    22    23    1
    11    22    24    1
    12    22    25    1
    13    18    19   ar
    14    19    20   ar
    15     3     4    1
    16     4     5    1
    17     5     6   ar
    18     6     7   ar
    19     7    11    1
    20    11    12    2
    21    11    13    1
    22     7     8   ar
    23     8     9   ar
    24     9    10    1
    25    10     3    1
    26    20    15   ar
    27     9     5   ar
@<TRIPOS>MOLECULE
*****
 25 27 0 0 0
SMALL
GASTEIGER

@<TRIPOS>ATOM
      1 C         138.9901  138.3787  165.1265 C.3     1  UNL1        0.2469
      2 C         140.9578  138.1768  164.7847 C.3     1  UNL1        0.0497
      3 C         140.1941  138.8822  165.8659 C.3     1  UNL1        0.1969
      4 C         139.1786  139.4824  166.7926 C.3     1  UNL1        0.1543
      5 N         139.9148  140.2093  167.8787 N.ar    1  UNL1       -0.2713
      6 C         139.7422  141.0295  169.1226 C.ar    1  UNL1        0.1780
      7 C         141.1058  141.3856  169.6361 C.ar    1  UNL1        0.3976
      8 N         142.1213  140.7854  168.7094 N.ar    1  UNL1       -0.1275
      9 C         141.3852  140.0585  167.6233 C.ar    1  UNL1        0.3058
     10 O         141.5578  139.2383  166.3793 O.3     1  UNL1       -0.4493
     11 N         141.4021  142.1990  170.8610 N.pl3   1  UNL1        0.1030
     12 O         140.5463  142.0517  172.0842 O.2     1  UNL1        0.0432
     13 O         142.5541  143.1597  170.8630 O.co2   1  UNL1       -0.5746
     14 O         138.8133  138.7024  163.6725 O.3     1  UNL1       -0.4716
     15 C         138.7026  140.1314  163.2303 C.ar    1  UNL1        0.1389
     16 C         139.6862  140.6901  162.2452 C.ar    1  UNL1        0.0400
     17 C         139.5755  142.1192  161.8031 C.ar    1  UNL1        0.0403
     18 C         138.4811  142.9896  162.3460 C.ar    1  UNL1        0.1470
     19 C         137.4975  142.4310  163.3311 C.ar    1  UNL1        0.0403
     20 C         137.6082  141.0019  163.7733 C.ar    1  UNL1        0.0400
     21 O         138.3704  144.4186  161.9039 O.3     1  UNL1       -0.4045
     22 C         139.5025  145.3707  162.1530 C.3     1  UNL1        0.5753
     23 F         140.6346  146.3227  162.4020 F       1  UNL1       -0.1328
     24 F         139.2280  145.3117  163.6265 F       1  UNL1       -0.1328
     25 F         139.7770  145.4297  160.6795 F       1  UNL1       -0.1328
@<TRIPOS>UNITY_ATOM_ATTR
11 1
charge 1
13 1
charge -1
@<TRIPOS>BOND
     1     3     2    1
     2     3     1    1
     3     1    14    1
     4    14    15    1
     5    15    16   ar
     6    16    17   ar
     7    17    18   ar
     8    18    21    1
     9    21    22    1
    10    22    23    1
    11    22    24    1
    12    22    25    1
    13    18    19   ar
    14    19    20   ar
    15     3     4    1
    16     4     5    1
    17     5     6   ar
    18     6     7   ar
    19     7    11    1
    20    11    12    2
    21    11    13    1
    22     7     8   ar
    23     8     9   ar
    24     9    10    1
    25    10     3    1
    26    20    15   ar
    27     9     5   ar
@<TRIPOS>MOLECULE
*****
 25 27 0 0 0
SMALL
GASTEIGER

@<TRIPOS>ATOM
      1 C         145.4323  141.7501  163.3134 C.3     1  UNL1        0.2469
      2 C         145.2075  140.0602  164.3731 C.3     1  UNL1        0.0497
      3 C         144.8524  140.4129  162.9591 C.3     1  UNL1        0.1969
      4 C         144.6185  141.0452  161.6192 C.3     1  UNL1        0.1543
      5 N         143.9683  140.0250  160.7324 N.ar    1  UNL1       -0.2713
      6 C         143.4219  139.7852  159.3562 C.ar    1  UNL1        0.1780
      7 C         142.9163  138.3742  159.2975 C.ar    1  UNL1        0.3976
      8 N         143.1501  137.7419  160.6376 N.ar    1  UNL1       -0.1275
      9 C         143.8003  138.7622  161.5243 C.ar    1  UNL1        0.3058
     10 O         144.3467  139.0019  162.9005 O.3     1  UNL1       -0.4493
     11 N         142.2872  137.7118  158.1078 N.pl3   1  UNL1        0.1030
     12 O         142.8679  136.4406  157.5629 O.2     1  UNL1        0.0432
     13 O         141.0774  138.3205  157.4630 O.co2   1  UNL1       -0.5746
     14 O         144.9001  142.5100  164.4922 O.3     1  UNL1       -0.4716
     15 C         143.5745  143.2057  164.3997 C.ar    1  UNL1        0.1389
     16 C         143.4757  144.5460  163.7334 C.ar    1  UNL1        0.0400
     17 C         142.1501  145.2417  163.6409 C.ar    1  UNL1        0.0403
     18 C         140.9231  144.5972  164.2147 C.ar    1  UNL1        0.1470
     19 C         141.0219  143.2570  164.8810 C.ar    1  UNL1        0.0403
     20 C         142.3476  142.5612  164.9736 C.ar    1  UNL1        0.0400
     21 O         139.5975  145.2929  164.1223 O.3     1  UNL1       -0.4045
     22 C         138.3546  144.6059  164.6053 C.3     1  UNL1        0.5753
     23 F         137.1117  143.9189  165.0883 F       1  UNL1       -0.1328
     24 F         138.5111  145.2640  165.9442 F       1  UNL1       -0.1328
     25 F         138.1981  143.9478  163.2665 F       1  UNL1       -0.1328
@<TRIPOS>UNITY_ATOM_ATTR
11 1
charge 1
13 1
charge -1
@<TRIPOS>BOND
     1     3     2    1
     2     3     1    1
     3     1    14    1
     4    14    15    1
     5    15    16   ar
     6    16    17   ar
     7    17    18   ar
     8    18    21    1
     9    21    22    1
    10    22    23    1
    11    22    24    1
    12    22    25    1
    13    18    19   ar
    14    19    20   ar
    15     3     4    1
    16     4     5    1
    17     5     6   ar
    18     6     7   ar
    19     7    11    1
    20    11    12    2
    21    11    13    1
    22     7     8   ar
    23     8     9   ar
    24     9    10    1
    25    10     3    1
    26    20    15   ar
    27     9     5   ar
@<TRIPOS>MOLECULE
*****
 25 27 0 0 0
SMALL
GASTEIGER

@<TRIPOS>ATOM
      1 C         143.6764  139.1169  165.2947 C.3     1  UNL1        0.2469
      2 C         143.9821  137.7479  166.7305 C.3     1  UNL1        0.0497
      3 C         143.3153  139.0913  166.7503 C.3     1  UNL1        0.1969
      4 C         142.7239  140.4401  166.4657 C.3     1  UNL1        0.1543
      5 N         142.1367  140.9672  167.7414 N.ar    1  UNL1       -0.2713
      6 C         141.4082  142.1266  168.3540 C.ar    1  UNL1        0.1780
      7 C         141.1865  141.8201  169.8055 C.ar    1  UNL1        0.3976
      8 N         141.7779  140.4712  170.0900 N.ar    1  UNL1       -0.1275
      9 C         142.3651  139.9441  168.8144 C.ar    1  UNL1        0.3058
     10 O         143.0935  138.7848  168.2018 O.3     1  UNL1       -0.4493
     11 N         140.4948  142.7067  170.7982 N.pl3   1  UNL1        0.1030
     12 O         139.9894  144.0544  170.3757 O.2     1  UNL1        0.0432
     13 O         140.3085  142.2457  172.2134 O.co2   1  UNL1       -0.5746
     14 O         142.7757  138.4664  164.2869 O.3     1  UNL1       -0.4716
     15 C         141.5014  139.1412  163.8738 C.ar    1  UNL1        0.1389
     16 C         140.1883  138.6616  164.4176 C.ar    1  UNL1        0.0400
     17 C         138.9140  139.3365  164.0045 C.ar    1  UNL1        0.0403
     18 C         138.9527  140.4910  163.0476 C.ar    1  UNL1        0.1470
     19 C         140.2658  140.9706  162.5038 C.ar    1  UNL1        0.0403
     20 C         141.5402  140.2957  162.9169 C.ar    1  UNL1        0.0400
     21 O         137.6784  141.1658  162.6345 O.3     1  UNL1       -0.4045
     22 C         137.4928  142.6337  162.8818 C.3     1  UNL1        0.5753
     23 F         137.3071  144.1014  163.1290 F       1  UNL1       -0.1328
     24 F         137.6183  142.8974  161.4104 F       1  UNL1       -0.1328
     25 F         137.3672  142.3699  164.3530 F       1  UNL1       -0.1328
@<TRIPOS>UNITY_ATOM_ATTR
11 1
charge 1
13 1
charge -1
@<TRIPOS>BOND
     1     3     2    1
     2     3     1    1
     3     1    14    1
     4    14    15    1
     5    15    16   ar
     6    16    17   ar
     7    17    18   ar
     8    18    21    1
     9    21    22    1
    10    22    23    1
    11    22    24    1
    12    22    25    1
    13    18    19   ar
    14    19    20   ar
    15     3     4    1
    16     4     5    1
    17     5     6   ar
    18     6     7   ar
    19     7    11    1
    20    11    12    2
    21    11    13    1
    22     7     8   ar
    23     8     9   ar
    24     9    10    1
    25    10     3    1
    26    20    15   ar
    27     9     5   ar
@<TRIPOS>MOLECULE
*****
 25 27 0 0 0
SMALL
GASTEIGER

@<TRIPOS>ATOM
      1 C         139.6135  138.1563  162.3024 C.3     1  UNL1        0.2469
      2 C         137.7079  138.4746  161.7576 C.3     1  UNL1        0.0497
      3 C         138.9062  139.3762  161.7912 C.3     1  UNL1        0.1969
      4 C         140.2524  140.0228  161.9317 C.3     1  UNL1        0.1543
      5 N         140.1265  141.4539  161.5002 N.ar    1  UNL1       -0.2713
      6 C         140.8807  142.7380  161.3204 C.ar    1  UNL1        0.1780
      7 C         139.9229  143.7695  160.8021 C.ar    1  UNL1        0.3976
      8 N         138.5767  143.1228  160.6616 N.ar    1  UNL1       -0.1275
      9 C         138.7026  141.6918  161.0931 C.ar    1  UNL1        0.3058
     10 O         137.9484  140.4077  161.2729 O.3     1  UNL1       -0.4493
     11 N         140.2532  145.1969  160.4808 N.pl3   1  UNL1        0.1030
     12 O         141.4437  145.5172  159.6261 O.2     1  UNL1        0.0432
     13 O         139.3932  146.3041  161.0140 O.co2   1  UNL1       -0.5746
     14 O         139.2414  137.5768  163.6351 O.3     1  UNL1       -0.4716
     15 C         139.4821  138.3642  164.8889 C.ar    1  UNL1        0.1389
     16 C         138.3462  138.6464  165.8271 C.ar    1  UNL1        0.0400
     17 C         138.5869  139.4338  167.0808 C.ar    1  UNL1        0.0403
     18 C         139.9635  139.9390  167.3965 C.ar    1  UNL1        0.1470
     19 C         141.0994  139.6569  166.4585 C.ar    1  UNL1        0.0403
     20 C         140.8587  138.8695  165.2046 C.ar    1  UNL1        0.0400
     21 O         140.2042  140.7264  168.6503 O.3     1  UNL1       -0.4045
     22 C         139.9218  140.1105  169.9886 C.3     1  UNL1        0.5753
     23 F         139.6393  139.4947  171.3269 F       1  UNL1       -0.1328
     24 F         141.1716  139.2889  169.8743 F       1  UNL1       -0.1328
     25 F         138.6720  140.9321  170.1029 F       1  UNL1       -0.1328
@<TRIPOS>UNITY_ATOM_ATTR
11 1
charge 1
13 1
charge -1
@<TRIPOS>BOND
     1     3     2    1
     2     3     1    1
     3     1    14    1
     4    14    15    1
     5    15    16   ar
     6    16    17   ar
     7    17    18   ar
     8    18    21    1
     9    21    22    1
    10    22    23    1
    11    22    24    1
    12    22    25    1
    13    18    19   ar
    14    19    20   ar
    15     3     4    1
    16     4     5    1
    17     5     6   ar
    18     6     7   ar
    19     7    11    1
    20    11    12    2
    21    11    13    1
    22     7     8   ar
    23     8     9   ar
    24     9    10    1
    25    10     3    1
    26    20    15   ar
    27     9     5   ar
@<TRIPOS>MOLECULE
*****
 25 27 0 0 0
SMALL
GASTEIGER

@<TRIPOS>ATOM
      1 C         138.1929  139.4585  164.8385 C.3     1  UNL1        0.2469
      2 C         138.0213  138.1692  166.3675 C.3     1  UNL1        0.0497
      3 C         138.6414  139.5313  166.2680 C.3     1  UNL1        0.1969
      4 C         139.1678  140.8783  165.8697 C.3     1  UNL1        0.1543
      5 N         139.8119  141.4987  167.0739 N.ar    1  UNL1       -0.2713
      6 C         140.5354  142.7147  167.5720 C.ar    1  UNL1        0.1780
      7 C         140.8542  142.5028  169.0223 C.ar    1  UNL1        0.3976
      8 N         140.3278  141.1558  169.4206 N.ar    1  UNL1       -0.1275
      9 C         139.6837  140.5353  168.2164 C.ar    1  UNL1        0.3058
     10 O         138.9602  139.3193  167.7184 O.3     1  UNL1       -0.4493
     11 N         141.5732  143.4682  169.9172 N.pl3   1  UNL1        0.1030
     12 O         143.0067  143.2245  170.2857 O.2     1  UNL1        0.0432
     13 O         140.8588  144.6775  170.4437 O.co2   1  UNL1       -0.5746
     14 O         138.9545  138.6197  163.8553 O.3     1  UNL1       -0.4716
     15 C         140.3781  138.9578  163.5254 C.ar    1  UNL1        0.1389
     16 C         141.4945  138.1188  164.0730 C.ar    1  UNL1        0.0400
     17 C         142.9182  138.4568  163.7430 C.ar    1  UNL1        0.0403
     18 C         143.2255  139.6339  162.8654 C.ar    1  UNL1        0.1470
     19 C         142.1092  140.4728  162.3178 C.ar    1  UNL1        0.0403
     20 C         140.6854  140.1348  162.6478 C.ar    1  UNL1        0.0400
     21 O         144.6491  139.9719  162.5354 O.3     1  UNL1       -0.4045
     22 C         145.3411  141.0902  163.2571 C.3     1  UNL1        0.5753
     23 F         146.0330  142.2084  163.9787 F       1  UNL1       -0.1328
     24 F         145.5226  140.2051  164.4545 F       1  UNL1       -0.1328
     25 F         145.1596  141.9752  162.0597 F       1  UNL1       -0.1328
@<TRIPOS>UNITY_ATOM_ATTR
11 1
charge 1
13 1
charge -1
@<TRIPOS>BOND
     1     3     2    1
     2     3     1    1
     3     1    14    1
     4    14    15    1
     5    15    16   ar
     6    16    17   ar
     7    17    18   ar
     8    18    21    1
     9    21    22    1
    10    22    23    1
    11    22    24    1
    12    22    25    1
    13    18    19   ar
    14    19    20   ar
    15     3     4    1
    16     4     5    1
    17     5     6   ar
    18     6     7   ar
    19     7    11    1
    20    11    12    2
    21    11    13    1
    22     7     8   ar
    23     8     9   ar
    24     9    10    1
    25    10     3    1
    26    20    15   ar
    27     9     5   ar
@<TRIPOS>MOLECULE
*****
 25 27 0 0 0
SMALL
GASTEIGER

@<TRIPOS>ATOM
      1 C         144.6134  139.6551  164.5021 C.3     1  UNL1        0.2469
      2 C         145.4445  141.1849  163.5029 C.3     1  UNL1        0.0497
      3 C         144.6365  140.0074  163.0442 C.3     1  UNL1        0.1969
      4 C         143.8236  138.7562  162.8903 C.3     1  UNL1        0.1543
      5 N         143.5132  138.5814  161.4332 N.ar    1  UNL1       -0.2713
      6 C         142.8190  137.7001  160.4376 C.ar    1  UNL1        0.1780
      7 C         143.0109  138.2986  159.0756 C.ar    1  UNL1        0.3976
      8 N         143.8239  139.5499  159.2295 N.ar    1  UNL1       -0.1275
      9 C         144.1343  139.7246  160.6866 C.ar    1  UNL1        0.3058
     10 O         144.8285  140.6059  161.6823 O.3     1  UNL1       -0.4493
     11 N         142.4828  137.7434  157.7862 N.pl3   1  UNL1        0.1030
     12 O         141.0127  137.7967  157.4929 O.2     1  UNL1        0.0432
     13 O         143.4247  137.1349  156.7899 O.co2   1  UNL1       -0.5746
     14 O         143.3337  139.2106  165.1461 O.3     1  UNL1       -0.4716
     15 C         142.8493  139.8845  166.3955 C.ar    1  UNL1        0.1389
     16 C         142.8594  139.1433  167.6997 C.ar    1  UNL1        0.0400
     17 C         142.3750  139.8172  168.9491 C.ar    1  UNL1        0.0403
     18 C         141.8805  141.2323  168.8945 C.ar    1  UNL1        0.1470
     19 C         141.8703  141.9735  167.5905 C.ar    1  UNL1        0.0403
     20 C         142.3547  141.2995  166.3410 C.ar    1  UNL1        0.0400
     21 O         141.3961  141.9062  170.1440 O.3     1  UNL1       -0.4045
     22 C         141.0001  143.3527  170.1107 C.3     1  UNL1        0.5753
     23 F         140.6040  144.7990  170.0774 F       1  UNL1       -0.1328
     24 F         142.4326  143.7495  170.3123 F       1  UNL1       -0.1328
     25 F         139.5677  142.9558  169.9092 F       1  UNL1       -0.1328
@<TRIPOS>UNITY_ATOM_ATTR
11 1
charge 1
13 1
charge -1
@<TRIPOS>BOND
     1     3     2    1
     2     3     1    1
     3     1    14    1
     4    14    15    1
     5    15    16   ar
     6    16    17   ar
     7    17    18   ar
     8    18    21    1
     9    21    22    1
    10    22    23    1
    11    22    24    1
    12    22    25    1
    13    18    19   ar
    14    19    20   ar
    15     3     4    1
    16     4     5    1
    17     5     6   ar
    18     6     7   ar
    19     7    11    1
    20    11    12    2
    21    11    13    1
    22     7     8   ar
    23     8     9   ar
    24     9    10    1
    25    10     3    1
    26    20    15   ar
    27     9     5   ar
