@<TRIPOS>MOLECULE
*****
 37 41 0 0 0
SMALL
GASTEIGER

@<TRIPOS>ATOM
      1 C         140.7115  147.2046  152.1673 C.3     1  UNL1        0.1122
      2 N         141.1771  146.4704  153.3896 N.am    1  UNL1       -0.2870
      3 C         140.5798  146.7881  154.7284 C.2     1  UNL1        0.3040
      4 O         139.5169  147.8400  154.8448 O.2     1  UNL1       -0.2526
      5 N         141.0455  146.0539  155.9507 N.am    1  UNL1       -0.2637
      6 C         142.0947  144.9826  155.9895 C.3     1  UNL1        0.0955
      7 C         142.2414  144.5286  157.4116 C.3     1  UNL1        0.0317
      8 C         143.1239  143.4974  158.0501 C.3     1  UNL1        0.0025
      9 C         144.0825  142.7067  157.2099 C.3     1  UNL1        0.0001
     10 C         143.0479  143.2569  159.5288 C.3     1  UNL1        0.0042
     11 C         143.9304  142.2257  160.1672 C.3     1  UNL1        0.0003
     12 C         142.0893  144.0477  160.3689 C.3     1  UNL1        0.0261
     13 C         141.2068  145.0789  159.7304 C.3     1  UNL1        0.0559
     14 C         141.5138  144.8540  159.3292 C.3     1  UNL1        0.1697
     15 C         139.7716  146.1013  161.7404 C.3     1  UNL1        0.0473
     16 O         141.0972  145.3452  159.0073 O.3     1  UNL1       -0.4522
     17 C         141.5518  144.9742  158.5899 C.2     1  UNL1        0.3176
     18 O         140.0392  146.9479  156.5352 O.2     1  UNL1       -0.2501
     19 C         141.2828  145.3194  158.2518 C.3     1  UNL1        0.1130
     20 C         140.5437  146.2620  157.3489 C.3     1  UNL1        0.1056
     21 H         141.8748  145.7800  153.3132 H       1  UNL1        0.1510
     22 C         142.0133  143.8072  161.8476 C.2     1  UNL1       -0.0248
     23 C         141.1821  142.6788  162.3821 C.2     1  UNL1        0.0145
     24 C         141.1061  142.4383  163.8608 C.ar    1  UNL1        0.0810
     25 C         140.1499  143.2314  164.7014 C.ar    1  UNL1        0.0191
     26 C         140.0738  142.9909  166.1801 C.ar    1  UNL1        0.0031
     27 C         140.9540  141.9573  166.8181 C.ar    1  UNL1        0.0198
     28 C         141.9102  141.1642  165.9774 C.ar    1  UNL1        0.0988
     29 N         141.9862  141.4047  164.4988 N.ar    1  UNL1       -0.2438
     30 C         140.8780  141.7167  168.2967 C.ar    1  UNL1        0.0111
     31 C         141.7273  142.5246  169.2326 C.ar    1  UNL1        0.0007
     32 C         141.6514  142.2841  170.7113 C.ar    1  UNL1        0.0000
     33 C         140.7259  141.2357  171.2540 C.ar    1  UNL1        0.0007
     34 C         139.8765  140.4279  170.3180 C.ar    1  UNL1        0.0103
     35 C         139.9525  140.6684  168.8394 C.ar    1  UNL1        0.0685
     36 C         139.1032  139.8606  167.9036 C.1     1  UNL1        0.1004
     37 N         138.2538  139.0527  166.9676 N.1     1  UNL1       -0.1908
@<TRIPOS>BOND
     1     1     2    1
     2     2     3   am
     3     3     4    2
     4     3     5   am
     5     5     6    1
     6     7     6    1
     7     7     8    1
     8     8     9    1
     9     8    10    1
    10    10    11    1
    11    10    12    1
    12    12    22    1
    13    22    23    2
    14    23    24    1
    15    24    25   ar
    16    25    26   ar
    17    26    27   ar
    18    27    30    1
    19    30    31   ar
    20    31    32   ar
    21    32    33   ar
    22    33    34   ar
    23    34    35   ar
    24    35    36    1
    25    36    37    3
    26    27    28   ar
    27    28    29   ar
    28    12    13    1
    29    13    14    1
    30    14    15    1
    31    14    16    1
    32    16    17    1
    33    17    18    2
    34    17    19    1
    35    19    20    1
    36    20     5    1
    37    19     7    1
    38    29    24   ar
    39    19    13    1
    40    35    30   ar
    41     2    21    1
@<TRIPOS>MOLECULE
*****
 37 41 0 0 0
SMALL
GASTEIGER

@<TRIPOS>ATOM
      1 C         138.6544  140.2809  169.9807 C.3     1  UNL1        0.1122
      2 N         139.2824  139.9158  168.6683 N.am    1  UNL1       -0.2870
      3 C         140.1940  140.8861  167.9774 C.2     1  UNL1        0.3040
      4 O         140.4776  142.2215  168.5989 O.2     1  UNL1       -0.2526
      5 N         140.8221  140.5210  166.6651 N.am    1  UNL1       -0.2637
      6 C         140.6330  139.2294  165.9261 C.3     1  UNL1        0.0955
      7 C         141.4436  139.2935  164.6656 C.3     1  UNL1        0.0317
      8 C         141.6425  138.3117  163.5492 C.3     1  UNL1        0.0025
      9 C         140.9524  136.9805  163.5893 C.3     1  UNL1        0.0001
     10 C         142.5314  138.6612  162.3926 C.3     1  UNL1        0.0042
     11 C         142.7303  137.6794  161.2761 C.3     1  UNL1        0.0003
     12 C         143.2215  139.9924  162.3524 C.3     1  UNL1        0.0261
     13 C         143.0226  140.9743  163.4690 C.3     1  UNL1        0.0559
     14 C         142.7235  140.5250  163.5897 C.3     1  UNL1        0.1697
     15 C         144.5000  143.0973  162.7946 C.3     1  UNL1        0.0473
     16 O         142.6175  140.9850  164.1335 O.3     1  UNL1       -0.4522
     17 C         142.2790  140.3503  164.1680 C.2     1  UNL1        0.3176
     18 O         141.3708  141.8672  166.8660 O.2     1  UNL1       -0.2501
     19 C         142.1336  140.6248  164.6255 C.3     1  UNL1        0.1130
     20 C         141.7495  141.3834  165.8612 C.3     1  UNL1        0.1056
     21 H         139.0963  139.0393  168.2605 H       1  UNL1        0.1510
     22 C         144.1104  140.3419  161.1959 C.2     1  UNL1       -0.0248
     23 C         143.5135  140.8599  159.9210 C.2     1  UNL1        0.0145
     24 C         144.4025  141.2094  158.7644 C.ar    1  UNL1        0.0810
     25 C         145.1687  142.4988  158.7702 C.ar    1  UNL1        0.0191
     26 C         146.0577  142.8483  157.6136 C.ar    1  UNL1        0.0031
     27 C         146.1803  141.9083  156.4511 C.ar    1  UNL1        0.0198
     28 C         145.4139  140.6188  156.4453 C.ar    1  UNL1        0.0988
     29 N         144.5251  140.2694  157.6019 N.ar    1  UNL1       -0.2438
     30 C         147.0691  142.2577  155.2945 C.ar    1  UNL1        0.0111
     31 C         148.4986  141.8033  155.2832 C.ar    1  UNL1        0.0007
     32 C         149.3875  142.1527  154.1266 C.ar    1  UNL1        0.0000
     33 C         148.8470  142.9566  152.9813 C.ar    1  UNL1        0.0007
     34 C         147.4174  143.4110  152.9927 C.ar    1  UNL1        0.0103
     35 C         146.5286  143.0616  154.1493 C.ar    1  UNL1        0.0685
     36 C         145.0992  143.5160  154.1606 C.1     1  UNL1        0.1004
     37 N         143.6696  143.9705  154.1720 N.1     1  UNL1       -0.1908
@<TRIPOS>BOND
     1     1     2    1
     2     2     3   am
     3     3     4    2
     4     3     5   am
     5     5     6    1
     6     7     6    1
     7     7     8    1
     8     8     9    1
     9     8    10    1
    10    10    11    1
    11    10    12    1
    12    12    22    1
    13    22    23    2
    14    23    24    1
    15    24    25   ar
    16    25    26   ar
    17    26    27   ar
    18    27    30    1
    19    30    31   ar
    20    31    32   ar
    21    32    33   ar
    22    33    34   ar
    23    34    35   ar
    24    35    36    1
    25    36    37    3
    26    27    28   ar
    27    28    29   ar
    28    12    13    1
    29    13    14    1
    30    14    15    1
    31    14    16    1
    32    16    17    1
    33    17    18    2
    34    17    19    1
    35    19    20    1
    36    20     5    1
    37    19     7    1
    38    29    24   ar
    39    19    13    1
    40    35    30   ar
    41     2    21    1
@<TRIPOS>MOLECULE
*****
 37 41 0 0 0
SMALL
GASTEIGER

@<TRIPOS>ATOM
      1 C         134.8324  141.9096  152.3115 C.3     1  UNL1        0.1122
      2 N         135.7620  142.2678  153.4329 N.am    1  UNL1       -0.2870
      3 C         135.8024  141.4239  154.6722 C.2     1  UNL1        0.3040
      4 O         134.9132  140.2217  154.7902 O.2     1  UNL1       -0.2526
      5 N         136.7320  141.7821  155.7936 N.am    1  UNL1       -0.2637
      6 C         137.6749  142.9484  155.8188 C.3     1  UNL1        0.0955
      7 C         138.4076  142.9241  157.1274 C.3     1  UNL1        0.0317
      8 C         139.4577  143.8250  157.7067 C.3     1  UNL1        0.0025
      9 C         139.9477  145.0064  156.9230 C.3     1  UNL1        0.0001
     10 C         140.0178  143.5446  159.0697 C.3     1  UNL1        0.0042
     11 C         141.0678  144.4455  159.6490 C.3     1  UNL1        0.0003
     12 C         139.5277  142.3632  159.8534 C.3     1  UNL1        0.0261
     13 C         138.4776  141.4622  159.2740 C.3     1  UNL1        0.0559
     14 C         138.5785  141.8581  158.9013 C.3     1  UNL1        0.1697
     15 C         138.0629  139.5940  161.1402 C.3     1  UNL1        0.0473
     16 O         138.0741  141.4355  158.6090 O.3     1  UNL1       -0.4522
     17 C         138.2985  141.9984  158.2199 C.2     1  UNL1        0.3176
     18 O         136.0914  140.5812  156.3423 O.2     1  UNL1       -0.2501
     19 C         137.9176  141.7427  157.9111 C.3     1  UNL1        0.1130
     20 C         136.8820  141.0369  157.0867 C.3     1  UNL1        0.1056
     21 H         136.3456  143.0569  153.3554 H       1  UNL1        0.1510
     22 C         140.0877  142.0828  161.2163 C.2     1  UNL1       -0.0248
     23 C         139.4912  142.7446  162.4230 C.2     1  UNL1        0.0145
     24 C         140.0512  142.4641  163.7860 C.ar    1  UNL1        0.0810
     25 C         139.6679  143.3324  164.9475 C.ar    1  UNL1        0.0191
     26 C         140.2279  143.0519  166.3106 C.ar    1  UNL1        0.0031
     27 C         141.1712  141.9032  166.5120 C.ar    1  UNL1        0.0198
     28 C         141.5545  141.0349  165.3504 C.ar    1  UNL1        0.0988
     29 N         140.9945  141.3154  163.9875 N.ar    1  UNL1       -0.2438
     30 C         141.7312  141.6227  167.8750 C.ar    1  UNL1        0.0111
     31 C         142.9826  142.3143  168.3284 C.ar    1  UNL1        0.0007
     32 C         143.5427  142.0338  169.6915 C.ar    1  UNL1        0.0000
     33 C         142.8513  141.0618  170.6009 C.ar    1  UNL1        0.0007
     34 C         141.5998  140.3703  170.1474 C.ar    1  UNL1        0.0103
     35 C         141.0398  140.6507  168.7845 C.ar    1  UNL1        0.0685
     36 C         139.7884  139.9592  168.3310 C.1     1  UNL1        0.1004
     37 N         138.5369  139.2676  167.8775 N.1     1  UNL1       -0.1908
@<TRIPOS>BOND
     1     1     2    1
     2     2     3   am
     3     3     4    2
     4     3     5   am
     5     5     6    1
     6     7     6    1
     7     7     8    1
     8     8     9    1
     9     8    10    1
    10    10    11    1
    11    10    12    1
    12    12    22    1
    13    22    23    2
    14    23    24    1
    15    24    25   ar
    16    25    26   ar
    17    26    27   ar
    18    27    30    1
    19    30    31   ar
    20    31    32   ar
    21    32    33   ar
    22    33    34   ar
    23    34    35   ar
    24    35    36    1
    25    36    37    3
    26    27    28   ar
    27    28    29   ar
    28    12    13    1
    29    13    14    1
    30    14    15    1
    31    14    16    1
    32    16    17    1
    33    17    18    2
    34    17    19    1
    35    19    20    1
    36    20     5    1
    37    19     7    1
    38    29    24   ar
    39    19    13    1
    40    35    30   ar
    41     2    21    1
@<TRIPOS>MOLECULE
*****
 37 41 0 0 0
SMALL
GASTEIGER

@<TRIPOS>ATOM
      1 C         136.9881  138.1230  167.4842 C.3     1  UNL1        0.1122
      2 N         137.9314  138.9836  166.6971 N.am    1  UNL1       -0.2870
      3 C         138.8276  138.3650  165.6656 C.2     1  UNL1        0.3040
      4 O         138.7806  136.8858  165.4212 O.2     1  UNL1       -0.2526
      5 N         139.7709  139.2256  164.8784 N.am    1  UNL1       -0.2637
      6 C         139.9288  140.7113  165.0116 C.3     1  UNL1        0.0955
      7 C         140.9774  141.1555  164.0354 C.3     1  UNL1        0.0317
      8 C         141.5491  142.5063  163.7220 C.3     1  UNL1        0.0025
      9 C         141.0588  143.7175  164.4586 C.3     1  UNL1        0.0001
     10 C         142.6112  142.6461  162.6719 C.3     1  UNL1        0.0042
     11 C         143.1829  143.9969  162.3586 C.3     1  UNL1        0.0003
     12 C         143.1015  141.4349  161.9353 C.3     1  UNL1        0.0261
     13 C         142.5297  140.0839  162.2487 C.3     1  UNL1        0.0559
     14 C         142.2769  140.4499  162.5774 C.3     1  UNL1        0.1697
     15 C         143.8086  138.3961  160.6177 C.3     1  UNL1        0.0473
     16 O         141.9921  139.8087  162.7398 O.3     1  UNL1       -0.4522
     17 C         141.7459  140.3800  163.1024 C.2     1  UNL1        0.3176
     18 O         140.0700  137.9043  164.3140 O.2     1  UNL1       -0.2501
     19 C         141.4676  139.9443  163.2987 C.3     1  UNL1        0.1130
     20 C         140.7220  138.7516  163.8197 C.3     1  UNL1        0.1056
     21 H         137.9623  139.9545  166.8575 H       1  UNL1        0.1510
     22 C         144.1635  141.5745  160.8853 C.2     1  UNL1       -0.0248
     23 C         143.7773  141.7929  159.4524 C.2     1  UNL1        0.0145
     24 C         144.8394  141.9326  158.4023 C.ar    1  UNL1        0.0810
     25 C         144.7700  141.1081  157.1512 C.ar    1  UNL1        0.0191
     26 C         145.8321  141.2477  156.1011 C.ar    1  UNL1        0.0031
     27 C         146.9634  142.2120  156.3022 C.ar    1  UNL1        0.0198
     28 C         147.0327  143.0365  157.5534 C.ar    1  UNL1        0.0988
     29 N         145.9707  142.8968  158.6034 N.ar    1  UNL1       -0.2438
     30 C         148.0254  142.3517  155.2522 C.ar    1  UNL1        0.0111
     31 C         149.3381  141.6443  155.4145 C.ar    1  UNL1        0.0007
     32 C         150.4002  141.7840  154.3644 C.ar    1  UNL1        0.0000
     33 C         150.1495  142.6310  153.1521 C.ar    1  UNL1        0.0007
     34 C         148.8367  143.3384  152.9899 C.ar    1  UNL1        0.0103
     35 C         147.7747  143.1987  154.0399 C.ar    1  UNL1        0.0685
     36 C         146.4620  143.9060  153.8776 C.1     1  UNL1        0.1004
     37 N         145.1492  144.6134  153.7154 N.1     1  UNL1       -0.1908
@<TRIPOS>BOND
     1     1     2    1
     2     2     3   am
     3     3     4    2
     4     3     5   am
     5     5     6    1
     6     7     6    1
     7     7     8    1
     8     8     9    1
     9     8    10    1
    10    10    11    1
    11    10    12    1
    12    12    22    1
    13    22    23    2
    14    23    24    1
    15    24    25   ar
    16    25    26   ar
    17    26    27   ar
    18    27    30    1
    19    30    31   ar
    20    31    32   ar
    21    32    33   ar
    22    33    34   ar
    23    34    35   ar
    24    35    36    1
    25    36    37    3
    26    27    28   ar
    27    28    29   ar
    28    12    13    1
    29    13    14    1
    30    14    15    1
    31    14    16    1
    32    16    17    1
    33    17    18    2
    34    17    19    1
    35    19    20    1
    36    20     5    1
    37    19     7    1
    38    29    24   ar
    39    19    13    1
    40    35    30   ar
    41     2    21    1
@<TRIPOS>MOLECULE
*****
 37 41 0 0 0
SMALL
GASTEIGER

@<TRIPOS>ATOM
      1 C         140.1900  140.0621  170.8188 C.3     1  UNL1        0.1122
      2 N         139.9927  140.1047  169.3324 N.am    1  UNL1       -0.2870
      3 C         140.1951  141.3896  168.5855 C.2     1  UNL1        0.3040
      4 O         140.5949  142.6320  169.3249 O.2     1  UNL1       -0.2526
      5 N         139.9978  141.4323  167.0992 N.am    1  UNL1       -0.2637
      6 C         139.6005  140.2769  166.2290 C.3     1  UNL1        0.0955
      7 C         139.5203  140.7683  164.8140 C.3     1  UNL1        0.0317
      8 C         139.1755  140.0756  163.5290 C.3     1  UNL1        0.0025
      9 C         138.8278  138.6164  163.5333 C.3     1  UNL1        0.0001
     10 C         139.1785  140.8421  162.2396 C.3     1  UNL1        0.0042
     11 C         138.8337  140.1494  160.9545 C.3     1  UNL1        0.0003
     12 C         139.5261  142.3012  162.2352 C.3     1  UNL1        0.0261
     13 C         139.8709  142.9939  163.5203 C.3     1  UNL1        0.0559
     14 C         139.7618  142.4656  163.6423 C.3     1  UNL1        0.1697
     15 C         140.3783  145.5251  162.8273 C.3     1  UNL1        0.0473
     16 O         139.9249  142.7832  164.2677 O.3     1  UNL1       -0.4522
     17 C         139.7604  142.0824  164.2870 C.2     1  UNL1        0.3176
     18 O         140.3680  142.8270  167.3662 O.2     1  UNL1       -0.2501
     19 C         139.8679  142.2274  164.8097 C.3     1  UNL1        0.1130
     20 C         140.1631  142.6377  166.2220 C.3     1  UNL1        0.1056
     21 H         139.7303  139.2893  168.8471 H       1  UNL1        0.1510
     22 C         139.5291  143.0677  160.9459 C.2     1  UNL1       -0.0248
     23 C         140.8123  143.2683  160.1956 C.2     1  UNL1        0.0145
     24 C         140.8153  144.0348  158.9062 C.ar    1  UNL1        0.0810
     25 C         139.6975  143.8526  157.9228 C.ar    1  UNL1        0.0191
     26 C         139.7005  144.6191  156.6333 C.ar    1  UNL1        0.0031
     27 C         140.8214  145.5678  156.3274 C.ar    1  UNL1        0.0198
     28 C         141.9393  145.7500  157.3109 C.ar    1  UNL1        0.0988
     29 N         141.9362  144.9835  158.6003 N.ar    1  UNL1       -0.2438
     30 C         140.8244  146.3343  155.0381 C.ar    1  UNL1        0.0111
     31 C         141.6096  145.8261  153.8654 C.ar    1  UNL1        0.0007
     32 C         141.6126  146.5926  152.5760 C.ar    1  UNL1        0.0000
     33 C         140.8305  147.8672  152.4593 C.ar    1  UNL1        0.0007
     34 C         140.0453  148.3754  153.6321 C.ar    1  UNL1        0.0103
     35 C         140.0423  147.6089  154.9214 C.ar    1  UNL1        0.0685
     36 C         139.2571  148.1170  156.0941 C.1     1  UNL1        0.1004
     37 N         138.4719  148.6252  157.2669 N.1     1  UNL1       -0.1908
@<TRIPOS>BOND
     1     1     2    1
     2     2     3   am
     3     3     4    2
     4     3     5   am
     5     5     6    1
     6     7     6    1
     7     7     8    1
     8     8     9    1
     9     8    10    1
    10    10    11    1
    11    10    12    1
    12    12    22    1
    13    22    23    2
    14    23    24    1
    15    24    25   ar
    16    25    26   ar
    17    26    27   ar
    18    27    30    1
    19    30    31   ar
    20    31    32   ar
    21    32    33   ar
    22    33    34   ar
    23    34    35   ar
    24    35    36    1
    25    36    37    3
    26    27    28   ar
    27    28    29   ar
    28    12    13    1
    29    13    14    1
    30    14    15    1
    31    14    16    1
    32    16    17    1
    33    17    18    2
    34    17    19    1
    35    19    20    1
    36    20     5    1
    37    19     7    1
    38    29    24   ar
    39    19    13    1
    40    35    30   ar
    41     2    21    1
@<TRIPOS>MOLECULE
*****
 37 41 0 0 0
SMALL
GASTEIGER

@<TRIPOS>ATOM
      1 C         147.0896  141.3146  152.1383 C.3     1  UNL1        0.1122
      2 N         146.2297  140.8923  153.2925 N.am    1  UNL1       -0.2870
      3 C         146.3404  141.6020  154.6093 C.2     1  UNL1        0.3040
      4 O         147.3110  142.7340  154.7719 O.2     1  UNL1       -0.2526
      5 N         145.4805  141.1797  155.7635 N.am    1  UNL1       -0.2637
      6 C         144.4699  140.0713  155.7510 C.3     1  UNL1        0.0955
      7 C         143.8450  139.9982  157.1126 C.3     1  UNL1        0.0317
      8 C         142.7882  139.1008  157.6851 C.3     1  UNL1        0.0025
      9 C         142.1639  138.0375  156.8309 C.3     1  UNL1        0.0001
     10 C         142.3556  139.2667  159.1118 C.3     1  UNL1        0.0042
     11 C         141.2988  138.3693  159.6843 C.3     1  UNL1        0.0003
     12 C         142.9800  140.3300  159.9660 C.3     1  UNL1        0.0261
     13 C         144.0369  141.2274  159.3934 C.3     1  UNL1        0.0559
     14 C         143.8820  140.8792  158.9927 C.3     1  UNL1        0.1697
     15 C         144.7149  142.8628  161.3961 C.3     1  UNL1        0.0473
     16 O         144.3879  141.3016  158.7028 O.3     1  UNL1       -0.4522
     17 C         144.0982  140.7962  158.2794 C.2     1  UNL1        0.3176
     18 O         146.2375  142.2788  156.3740 O.2     1  UNL1       -0.2501
     19 C         144.4694  141.0615  157.9668 C.3     1  UNL1        0.1130
     20 C         145.4801  141.7917  157.1330 C.3     1  UNL1        0.1056
     21 H         145.5926  140.1494  153.1857 H       1  UNL1        0.1510
     22 C         142.5474  140.4959  161.3926 C.2     1  UNL1       -0.0248
     23 C         143.2081  139.6943  162.4747 C.2     1  UNL1        0.0145
     24 C         142.7756  139.8602  163.9014 C.ar    1  UNL1        0.0810
     25 C         143.0254  138.7630  164.8932 C.ar    1  UNL1        0.0191
     26 C         142.5929  138.9289  166.3200 C.ar    1  UNL1        0.0031
     27 C         141.9106  140.1920  166.7548 C.ar    1  UNL1        0.0198
     28 C         141.6608  141.2892  165.7628 C.ar    1  UNL1        0.0988
     29 N         142.0933  141.1233  164.3362 N.ar    1  UNL1       -0.2438
     30 C         141.4781  140.3580  168.1814 C.ar    1  UNL1        0.0111
     31 C         142.4619  140.8222  169.2142 C.ar    1  UNL1        0.0007
     32 C         142.0294  140.9882  170.6409 C.ar    1  UNL1        0.0000
     33 C         140.6131  140.6899  171.0348 C.ar    1  UNL1        0.0007
     34 C         139.6293  140.2256  170.0020 C.ar    1  UNL1        0.0103
     35 C         140.0618  140.0596  168.5753 C.ar    1  UNL1        0.0685
     36 C         139.0780  139.5954  167.5426 C.1     1  UNL1        0.1004
     37 N         138.0942  139.1311  166.5098 N.1     1  UNL1       -0.1908
@<TRIPOS>BOND
     1     1     2    1
     2     2     3   am
     3     3     4    2
     4     3     5   am
     5     5     6    1
     6     7     6    1
     7     7     8    1
     8     8     9    1
     9     8    10    1
    10    10    11    1
    11    10    12    1
    12    12    22    1
    13    22    23    2
    14    23    24    1
    15    24    25   ar
    16    25    26   ar
    17    26    27   ar
    18    27    30    1
    19    30    31   ar
    20    31    32   ar
    21    32    33   ar
    22    33    34   ar
    23    34    35   ar
    24    35    36    1
    25    36    37    3
    26    27    28   ar
    27    28    29   ar
    28    12    13    1
    29    13    14    1
    30    14    15    1
    31    14    16    1
    32    16    17    1
    33    17    18    2
    34    17    19    1
    35    19    20    1
    36    20     5    1
    37    19     7    1
    38    29    24   ar
    39    19    13    1
    40    35    30   ar
    41     2    21    1
@<TRIPOS>MOLECULE
*****
 37 41 0 0 0
SMALL
GASTEIGER

@<TRIPOS>ATOM
      1 C         140.0869  142.4601  171.0597 C.3     1  UNL1        0.1122
      2 N         140.3339  142.4922  169.5806 N.am    1  UNL1       -0.2870
      3 C         139.9769  141.3061  168.7346 C.2     1  UNL1        0.3040
      4 O         139.3729  140.0879  169.3679 O.2     1  UNL1       -0.2526
      5 N         140.2239  141.3383  167.2555 N.am    1  UNL1       -0.2637
      6 C         140.8179  142.4802  166.4854 C.3     1  UNL1        0.0955
      7 C         140.8814  142.0818  165.0406 C.3     1  UNL1        0.0317
      8 C         141.3727  142.8037  163.8211 C.3     1  UNL1        0.0025
      9 C         141.9276  144.1919  163.9439 C.3     1  UNL1        0.0001
     10 C         141.3092  142.1375  162.4786 C.3     1  UNL1        0.0042
     11 C         141.8006  142.8594  161.2590 C.3     1  UNL1        0.0003
     12 C         140.7544  140.7493  162.3558 C.3     1  UNL1        0.0261
     13 C         140.2630  140.0274  163.5754 C.3     1  UNL1        0.0559
     14 C         140.4426  140.5240  163.7394 C.3     1  UNL1        0.1697
     15 C         139.4219  137.6527  162.6817 C.3     1  UNL1        0.0473
     16 O         140.2109  140.1913  164.3345 O.3     1  UNL1       -0.4522
     17 C         140.4744  140.8572  164.4106 C.2     1  UNL1        0.3176
     18 O         139.6455  139.9981  167.4073 O.2     1  UNL1       -0.2501
     19 C         140.3266  140.6936  164.9178 C.3     1  UNL1        0.1130
     20 C         139.9202  140.2341  166.2866 C.3     1  UNL1        0.1056
     21 H         140.7303  143.2918  169.1650 H       1  UNL1        0.1510
     22 C         140.6909  140.0830  161.0134 C.2     1  UNL1       -0.0248
     23 C         141.8735  139.3165  160.4999 C.2     1  UNL1        0.0145
     24 C         141.8101  138.6502  159.1575 C.ar    1  UNL1        0.0810
     25 C         140.4805  138.3461  158.5332 C.ar    1  UNL1        0.0191
     26 C         140.4170  137.6798  157.1908 C.ar    1  UNL1        0.0031
     27 C         141.6832  137.3176  156.4726 C.ar    1  UNL1        0.0198
     28 C         143.0128  137.6217  157.0970 C.ar    1  UNL1        0.0988
     29 N         143.0762  138.2880  158.4393 N.ar    1  UNL1       -0.2438
     30 C         141.6197  136.6513  155.1303 C.ar    1  UNL1        0.0111
     31 C         141.1628  137.4255  153.9296 C.ar    1  UNL1        0.0007
     32 C         141.0993  136.7592  152.5871 C.ar    1  UNL1        0.0000
     33 C         141.4929  135.3187  152.4455 C.ar    1  UNL1        0.0007
     34 C         141.9499  134.5445  153.6462 C.ar    1  UNL1        0.0103
     35 C         142.0133  135.2108  154.9886 C.ar    1  UNL1        0.0685
     36 C         142.4703  134.4366  156.1893 C.1     1  UNL1        0.1004
     37 N         142.9273  133.6623  157.3900 N.1     1  UNL1       -0.1908
@<TRIPOS>BOND
     1     1     2    1
     2     2     3   am
     3     3     4    2
     4     3     5   am
     5     5     6    1
     6     7     6    1
     7     7     8    1
     8     8     9    1
     9     8    10    1
    10    10    11    1
    11    10    12    1
    12    12    22    1
    13    22    23    2
    14    23    24    1
    15    24    25   ar
    16    25    26   ar
    17    26    27   ar
    18    27    30    1
    19    30    31   ar
    20    31    32   ar
    21    32    33   ar
    22    33    34   ar
    23    34    35   ar
    24    35    36    1
    25    36    37    3
    26    27    28   ar
    27    28    29   ar
    28    12    13    1
    29    13    14    1
    30    14    15    1
    31    14    16    1
    32    16    17    1
    33    17    18    2
    34    17    19    1
    35    19    20    1
    36    20     5    1
    37    19     7    1
    38    29    24   ar
    39    19    13    1
    40    35    30   ar
    41     2    21    1
@<TRIPOS>MOLECULE
*****
 37 41 0 0 0
SMALL
GASTEIGER

@<TRIPOS>ATOM
      1 C         136.9927  139.1405  170.7181 C.3     1  UNL1        0.1122
      2 N         138.0750  139.6003  169.7867 N.am    1  UNL1       -0.2870
      3 C         138.0693  139.1575  168.3536 C.2     1  UNL1        0.3040
      4 O         136.9815  138.2549  167.8519 O.2     1  UNL1       -0.2526
      5 N         139.1515  139.6173  167.4223 N.am    1  UNL1       -0.2637
      6 C         140.2984  140.5160  167.7786 C.3     1  UNL1        0.0955
      7 C         141.1326  140.7133  166.5477 C.3     1  UNL1        0.0317
      8 C         142.3855  141.4998  166.2997 C.3     1  UNL1        0.0025
      9 C         143.0168  142.2766  167.4168 C.3     1  UNL1        0.0001
     10 C         143.0071  141.5097  164.9345 C.3     1  UNL1        0.0042
     11 C         144.2599  142.2962  164.6865 C.3     1  UNL1        0.0003
     12 C         142.3757  140.7329  163.8174 C.3     1  UNL1        0.0261
     13 C         141.1228  139.9462  164.0654 C.3     1  UNL1        0.0559
     14 C         141.2622  140.1884  164.5427 C.3     1  UNL1        0.1697
     15 C         140.5352  138.8213  161.7129 C.3     1  UNL1        0.0473
     16 O         140.6610  139.8160  164.6783 O.3     1  UNL1       -0.4522
     17 C         140.9514  140.1835  165.2252 C.2     1  UNL1        0.3176
     18 O         138.3472  138.7867  166.5185 O.2     1  UNL1       -0.2501
     19 C         140.5012  139.9365  165.4305 C.3     1  UNL1        0.1130
     20 C         139.2769  139.2591  165.9711 C.3     1  UNL1        0.1056
     21 H         138.7890  140.1927  170.1161 H       1  UNL1        0.1510
     22 C         142.9972  140.7426  162.4523 C.2     1  UNL1       -0.0248
     23 C         142.5785  141.7722  161.4450 C.2     1  UNL1        0.0145
     24 C         143.2000  141.7820  160.0798 C.ar    1  UNL1        0.0810
     25 C         143.2617  143.0575  159.2930 C.ar    1  UNL1        0.0191
     26 C         143.8832  143.0674  157.9278 C.ar    1  UNL1        0.0031
     27 C         144.4431  141.8016  157.3495 C.ar    1  UNL1        0.0198
     28 C         144.3814  140.5260  158.1364 C.ar    1  UNL1        0.0988
     29 N         143.7599  140.5162  159.5015 N.ar    1  UNL1       -0.2438
     30 C         145.0646  141.8114  155.9843 C.ar    1  UNL1        0.0111
     31 C         144.2913  141.3014  154.8046 C.ar    1  UNL1        0.0007
     32 C         144.9128  141.3112  153.4394 C.ar    1  UNL1        0.0000
     33 C         146.3076  141.8309  153.2540 C.ar    1  UNL1        0.0007
     34 C         147.0809  142.3409  154.4339 C.ar    1  UNL1        0.0103
     35 C         146.4594  142.3311  155.7990 C.ar    1  UNL1        0.0685
     36 C         147.2327  142.8411  156.9787 C.1     1  UNL1        0.1004
     37 N         148.0060  143.3512  158.1585 N.1     1  UNL1       -0.1908
@<TRIPOS>BOND
     1     1     2    1
     2     2     3   am
     3     3     4    2
     4     3     5   am
     5     5     6    1
     6     7     6    1
     7     7     8    1
     8     8     9    1
     9     8    10    1
    10    10    11    1
    11    10    12    1
    12    12    22    1
    13    22    23    2
    14    23    24    1
    15    24    25   ar
    16    25    26   ar
    17    26    27   ar
    18    27    30    1
    19    30    31   ar
    20    31    32   ar
    21    32    33   ar
    22    33    34   ar
    23    34    35   ar
    24    35    36    1
    25    36    37    3
    26    27    28   ar
    27    28    29   ar
    28    12    13    1
    29    13    14    1
    30    14    15    1
    31    14    16    1
    32    16    17    1
    33    17    18    2
    34    17    19    1
    35    19    20    1
    36    20     5    1
    37    19     7    1
    38    29    24   ar
    39    19    13    1
    40    35    30   ar
    41     2    21    1
@<TRIPOS>MOLECULE
*****
 37 41 0 0 0
SMALL
GASTEIGER

@<TRIPOS>ATOM
      1 C         140.6991  147.4481  152.1371 C.3     1  UNL1        0.1122
      2 N         140.7958  146.4778  153.2770 N.am    1  UNL1       -0.2870
      3 C         140.4502  146.9186  154.6685 C.2     1  UNL1        0.3040
      4 O         140.0080  148.3297  154.9201 O.2     1  UNL1       -0.2526
      5 N         140.5469  145.9484  155.8083 N.am    1  UNL1       -0.2637
      6 C         140.9716  144.5131  155.7109 C.3     1  UNL1        0.0955
      7 C         140.9230  143.9207  157.0881 C.3     1  UNL1        0.0317
      8 C         141.2341  142.5459  157.6009 C.3     1  UNL1        0.0025
      9 C         141.6889  141.4767  156.6522 C.3     1  UNL1        0.0001
     10 C         141.0904  142.2402  159.0624 C.3     1  UNL1        0.0042
     11 C         141.4015  140.8654  159.5752 C.3     1  UNL1        0.0003
     12 C         140.6356  143.3094  160.0110 C.3     1  UNL1        0.0261
     13 C         140.3245  144.6843  159.4982 C.3     1  UNL1        0.0559
     14 C         140.4802  144.3783  159.0647 C.3     1  UNL1        0.1697
     15 C         139.5862  146.0771  161.6569 C.3     1  UNL1        0.0473
     16 O         140.3349  145.0330  158.8024 O.3     1  UNL1       -0.4522
     17 C         140.5521  144.5311  158.3339 C.2     1  UNL1        0.3176
     18 O         140.0921  147.1531  156.5122 O.2     1  UNL1       -0.2501
     19 C         140.4682  144.9899  158.0367 C.3     1  UNL1        0.1130
     20 C         140.2357  146.2431  157.2458 C.3     1  UNL1        0.1056
     21 H         141.0860  145.5517  153.1118 H       1  UNL1        0.1510
     22 C         140.4919  143.0037  161.4725 C.2     1  UNL1       -0.0248
     23 C         141.7113  142.8925  162.3389 C.2     1  UNL1        0.0145
     24 C         141.5676  142.5869  163.8004 C.ar    1  UNL1        0.0810
     25 C         142.6864  142.9067  164.7470 C.ar    1  UNL1        0.0191
     26 C         142.5427  142.6010  166.2085 C.ar    1  UNL1        0.0031
     27 C         141.2803  141.9755  166.7234 C.ar    1  UNL1        0.0198
     28 C         140.1615  141.6557  165.7767 C.ar    1  UNL1        0.0988
     29 N         140.3052  141.9614  164.3152 N.ar    1  UNL1       -0.2438
     30 C         141.1366  141.6699  168.1848 C.ar    1  UNL1        0.0111
     31 C         140.3320  142.5792  169.0656 C.ar    1  UNL1        0.0007
     32 C         140.1883  142.2736  170.5272 C.ar    1  UNL1        0.0000
     33 C         140.8491  141.0586  171.1078 C.ar    1  UNL1        0.0007
     34 C         141.6537  140.1493  170.2269 C.ar    1  UNL1        0.0103
     35 C         141.7974  140.4549  168.7655 C.ar    1  UNL1        0.0685
     36 C         142.6019  139.5456  167.8847 C.1     1  UNL1        0.1004
     37 N         143.4065  138.6363  167.0038 N.1     1  UNL1       -0.1908
@<TRIPOS>BOND
     1     1     2    1
     2     2     3   am
     3     3     4    2
     4     3     5   am
     5     5     6    1
     6     7     6    1
     7     7     8    1
     8     8     9    1
     9     8    10    1
    10    10    11    1
    11    10    12    1
    12    12    22    1
    13    22    23    2
    14    23    24    1
    15    24    25   ar
    16    25    26   ar
    17    26    27   ar
    18    27    30    1
    19    30    31   ar
    20    31    32   ar
    21    32    33   ar
    22    33    34   ar
    23    34    35   ar
    24    35    36    1
    25    36    37    3
    26    27    28   ar
    27    28    29   ar
    28    12    13    1
    29    13    14    1
    30    14    15    1
    31    14    16    1
    32    16    17    1
    33    17    18    2
    34    17    19    1
    35    19    20    1
    36    20     5    1
    37    19     7    1
    38    29    24   ar
    39    19    13    1
    40    35    30   ar
    41     2    21    1
