@<TRIPOS>MOLECULE
*****
 35 38 0 0 0
SMALL
GASTEIGER

@<TRIPOS>ATOM
      1 N         143.2164  140.4180  160.6202 N.3     1  UNL1       -0.2653
      2 C         141.9469  140.5095  159.8266 C.3     1  UNL1        0.1036
      3 C         141.1859  141.8011  159.7754 C.3     1  UNL1        0.1470
      4 C         140.4248  143.0927  159.7242 C.3     1  UNL1        0.1035
      5 N         140.9334  144.2928  160.4667 N.3     1  UNL1       -0.2685
      6 C         142.2029  144.2012  161.2604 C.3     1  UNL1        0.1035
      7 C         142.9639  142.9096  161.3116 C.3     1  UNL1        0.1470
      8 C         143.7249  141.6180  161.3627 C.3     1  UNL1        0.1036
      9 O         141.6944  143.0012  160.5179 O.3     1  UNL1       -0.3530
     10 C         143.9774  139.1263  160.6714 C.3     1  UNL1        0.1202
     11 C         143.4567  137.9808  161.4879 C.3     1  UNL1        0.2226
     12 O         142.0411  137.5169  161.3119 O.3     1  UNL1       -0.4740
     13 C         139.1715  137.6847  164.7742 C.ar    1  UNL1        0.0686
     14 C         138.7045  138.0447  163.3948 C.ar    1  UNL1        0.0134
     15 C         139.6610  137.9887  162.2408 C.ar    1  UNL1        0.0376
     16 C         141.0845  137.5728  162.4660 C.ar    1  UNL1        0.1387
     17 C         141.5515  137.2129  163.8452 C.ar    1  UNL1        0.0376
     18 C         140.5950  137.2688  164.9994 C.ar    1  UNL1        0.0134
     19 N         137.2584  137.7967  167.0823 N.1     1  UNL1       -0.1908
     20 C         138.2150  137.7407  165.9282 C.1     1  UNL1        0.1004
     21 C         140.1724  145.5844  160.4155 C.3     1  UNL1        0.0737
     22 C         139.7757  146.2721  161.6883 C.3     1  UNL1        0.0361
     23 C         138.9529  145.5439  162.7093 C.3     1  UNL1        0.0925
     24 N         138.1318  144.3565  162.3024 N.3     1  UNL1       -0.1830
     25 H         138.4521  144.0812  161.3740 H       1  UNL1        0.1484
     26 S         138.1356  143.1169  163.1471 S.O2    1  UNL1        0.0450
     27 O         137.6262  142.3214  161.9820 O.2     1  UNL1       -0.1572
     28 O         138.6451  143.9123  164.3122 O.2     1  UNL1       -0.1572
     29 C         138.1395  141.8773  163.9917 C.3     1  UNL1        0.1952
     30 C         139.4126  141.4109  164.6333 C.ar    1  UNL1        0.0029
     31 C         140.6458  141.2199  163.8010 C.ar    1  UNL1       -0.0025
     32 C         141.9189  140.7535  164.4425 C.ar    1  UNL1       -0.0003
     33 C         141.9589  140.4780  165.9164 C.ar    1  UNL1       -0.0000
     34 C         140.7257  140.6689  166.7488 C.ar    1  UNL1       -0.0003
     35 C         139.4526  141.1353  166.1072 C.ar    1  UNL1       -0.0025
@<TRIPOS>BOND
     1    19    20    3
     2    20    13    1
     3    13    14   ar
     4    14    15   ar
     5    15    16   ar
     6    16    12    1
     7    12    11    1
     8    11    10    1
     9    10     1    1
    10     1     2    1
    11     2     3    1
    12     3     4    1
    13     4     5    1
    14     5    21    1
    15    21    22    1
    16    22    23    1
    17    23    24    1
    18    24    26    1
    19    26    27    2
    20    26    28    2
    21    26    29    1
    22    29    30    1
    23    30    31   ar
    24    31    32   ar
    25    32    33   ar
    26    33    34   ar
    27    34    35   ar
    28     5     6    1
    29     6     7    1
    30     7     8    1
    31     7     9    1
    32    16    17   ar
    33    17    18   ar
    34    18    13   ar
    35     8     1    1
    36     9     3    1
    37    35    30   ar
    38    24    25    1
@<TRIPOS>MOLECULE
*****
 35 38 0 0 0
SMALL
GASTEIGER

@<TRIPOS>ATOM
      1 N         139.0612  141.2022  165.6098 N.3     1  UNL1       -0.2653
      2 C         139.9070  142.3619  166.0454 C.3     1  UNL1        0.1036
      3 C         140.0473  143.5630  165.1578 C.3     1  UNL1        0.1470
      4 C         140.1876  144.7641  164.2703 C.3     1  UNL1        0.1035
      5 N         139.4821  144.8055  162.9472 N.3     1  UNL1       -0.2685
      6 C         138.6363  143.6457  162.5116 C.3     1  UNL1        0.1035
      7 C         138.4960  142.4447  163.3992 C.3     1  UNL1        0.1470
      8 C         138.3557  141.2436  164.2867 C.3     1  UNL1        0.1036
      9 O         139.3418  143.6043  163.8347 O.3     1  UNL1       -0.3530
     10 C         138.9209  140.0011  166.4973 C.3     1  UNL1        0.1202
     11 C         138.0057  138.8800  166.1030 C.3     1  UNL1        0.2226
     12 O         138.5708  137.6246  165.5074 O.3     1  UNL1       -0.4740
     13 C         141.3674  137.8638  161.9901 C.ar    1  UNL1        0.0686
     14 C         139.8915  138.0401  161.7882 C.ar    1  UNL1        0.0134
     15 C         138.9593  137.9604  162.9606 C.ar    1  UNL1        0.0376
     16 C         139.5030  137.7044  164.3350 C.ar    1  UNL1        0.1387
     17 C         140.9788  137.5280  164.5369 C.ar    1  UNL1        0.0376
     18 C         141.9111  137.6078  163.3645 C.ar    1  UNL1        0.0134
     19 N         143.2318  138.0232  159.6453 N.1     1  UNL1       -0.1908
     20 C         142.2996  137.9435  160.8177 C.1     1  UNL1        0.1004
     21 C         139.6224  146.0065  162.0597 C.3     1  UNL1        0.0737
     22 C         139.9797  145.8326  160.6132 C.3     1  UNL1        0.0361
     23 C         141.2197  145.0795  160.2323 C.3     1  UNL1        0.0925
     24 N         142.2149  144.6918  161.2854 N.3     1  UNL1       -0.1830
     25 H         141.7586  144.8302  162.1870 H       1  UNL1        0.1484
     26 S         142.7907  143.3067  161.2997 S.O2    1  UNL1        0.0450
     27 O         141.4784  142.7564  160.8251 O.2     1  UNL1       -0.1572
     28 O         144.1029  143.8569  161.7742 O.2     1  UNL1       -0.1572
     29 C         143.3663  141.9216  161.3139 C.3     1  UNL1        0.1952
     30 C         143.5863  141.2142  162.6182 C.ar    1  UNL1        0.0029
     31 C         142.6186  141.4063  163.7481 C.ar    1  UNL1       -0.0025
     32 C         142.8386  140.6989  165.0524 C.ar    1  UNL1       -0.0003
     33 C         144.0262  139.7994  165.2268 C.ar    1  UNL1       -0.0000
     34 C         144.9939  139.6073  164.0969 C.ar    1  UNL1       -0.0003
     35 C         144.7739  140.3147  162.7926 C.ar    1  UNL1       -0.0025
@<TRIPOS>BOND
     1    19    20    3
     2    20    13    1
     3    13    14   ar
     4    14    15   ar
     5    15    16   ar
     6    16    12    1
     7    12    11    1
     8    11    10    1
     9    10     1    1
    10     1     2    1
    11     2     3    1
    12     3     4    1
    13     4     5    1
    14     5    21    1
    15    21    22    1
    16    22    23    1
    17    23    24    1
    18    24    26    1
    19    26    27    2
    20    26    28    2
    21    26    29    1
    22    29    30    1
    23    30    31   ar
    24    31    32   ar
    25    32    33   ar
    26    33    34   ar
    27    34    35   ar
    28     5     6    1
    29     6     7    1
    30     7     8    1
    31     7     9    1
    32    16    17   ar
    33    17    18   ar
    34    18    13   ar
    35     8     1    1
    36     9     3    1
    37    35    30   ar
    38    24    25    1
@<TRIPOS>MOLECULE
*****
 35 38 0 0 0
SMALL
GASTEIGER

@<TRIPOS>ATOM
      1 N         141.7428  140.3200  167.5691 N.3     1  UNL1       -0.2653
      2 C         142.1249  141.7591  167.3872 C.3     1  UNL1        0.1036
      3 C         143.0891  142.1481  166.3061 C.3     1  UNL1        0.1470
      4 C         144.0534  142.5372  165.2249 C.3     1  UNL1        0.1035
      5 N         144.6356  141.4872  164.3257 N.3     1  UNL1       -0.2685
      6 C         144.2535  140.0481  164.5077 C.3     1  UNL1        0.1035
      7 C         143.2892  139.6591  165.5888 C.3     1  UNL1        0.1470
      8 C         142.3250  139.2700  166.6699 C.3     1  UNL1        0.1036
      9 O         143.6713  141.0981  165.4069 O.3     1  UNL1       -0.3530
     10 C         140.7785  139.9309  168.6502 C.3     1  UNL1        0.1202
     11 C         139.3038  140.1051  168.4382 C.3     1  UNL1        0.2226
     12 O         138.5338  139.0867  167.6508 O.3     1  UNL1       -0.4740
     13 C         138.6946  139.1279  163.1539 C.ar    1  UNL1        0.0686
     14 C         138.4227  140.3967  163.9063 C.ar    1  UNL1        0.0134
     15 C         138.3692  140.3830  165.4053 C.ar    1  UNL1        0.0376
     16 C         138.5874  139.1004  166.1519 C.ar    1  UNL1        0.1387
     17 C         138.8592  137.8316  165.3995 C.ar    1  UNL1        0.0376
     18 C         138.9128  137.8453  163.9005 C.ar    1  UNL1        0.0134
     19 N         138.8018  139.1553  160.1560 N.1     1  UNL1       -0.1908
     20 C         138.7482  139.1416  161.6549 C.1     1  UNL1        0.1004
     21 C         145.5999  141.8762  163.2446 C.3     1  UNL1        0.0737
     22 C         145.1125  142.0710  161.8394 C.3     1  UNL1        0.0361
     23 C         144.1094  143.1440  161.5354 C.3     1  UNL1        0.0925
     24 N         143.0666  142.9188  160.4810 N.3     1  UNL1       -0.1830
     25 H         143.0549  141.9174  160.2876 H       1  UNL1        0.1484
     26 S         141.6455  143.3280  160.7322 S.O2    1  UNL1        0.0450
     27 O         142.0253  144.7661  160.5385 O.2     1  UNL1       -0.1572
     28 O         141.2656  141.8899  160.9258 O.2     1  UNL1       -0.1572
     29 C         140.2244  143.7372  160.9833 C.3     1  UNL1        0.1952
     30 C         139.7183  143.8657  162.3895 C.ar    1  UNL1        0.0029
     31 C         138.2445  143.9652  162.6500 C.ar    1  UNL1       -0.0025
     32 C         137.7383  144.0937  164.0561 C.ar    1  UNL1       -0.0003
     33 C         138.7060  144.1228  165.2018 C.ar    1  UNL1       -0.0000
     34 C         140.1798  144.0234  164.9414 C.ar    1  UNL1       -0.0003
     35 C         140.6860  143.8949  163.5352 C.ar    1  UNL1       -0.0025
@<TRIPOS>BOND
     1    19    20    3
     2    20    13    1
     3    13    14   ar
     4    14    15   ar
     5    15    16   ar
     6    16    12    1
     7    12    11    1
     8    11    10    1
     9    10     1    1
    10     1     2    1
    11     2     3    1
    12     3     4    1
    13     4     5    1
    14     5    21    1
    15    21    22    1
    16    22    23    1
    17    23    24    1
    18    24    26    1
    19    26    27    2
    20    26    28    2
    21    26    29    1
    22    29    30    1
    23    30    31   ar
    24    31    32   ar
    25    32    33   ar
    26    33    34   ar
    27    34    35   ar
    28     5     6    1
    29     6     7    1
    30     7     8    1
    31     7     9    1
    32    16    17   ar
    33    17    18   ar
    34    18    13   ar
    35     8     1    1
    36     9     3    1
    37    35    30   ar
    38    24    25    1
@<TRIPOS>MOLECULE
*****
 35 38 0 0 0
SMALL
GASTEIGER

@<TRIPOS>ATOM
      1 N         139.2417  137.6220  164.6289 N.3     1  UNL1       -0.2653
      2 C         138.6052  137.9050  163.3004 C.3     1  UNL1        0.1036
      3 C         139.4628  138.1243  162.0895 C.3     1  UNL1        0.1470
      4 C         140.3204  138.3437  160.8785 C.3     1  UNL1        0.1035
      5 N         141.8145  138.2801  160.9960 N.3     1  UNL1       -0.2685
      6 C         142.4509  137.9971  162.3246 C.3     1  UNL1        0.1035
      7 C         141.5933  137.7777  163.5355 C.3     1  UNL1        0.1470
      8 C         140.7357  137.5584  164.7464 C.3     1  UNL1        0.1036
      9 O         140.9569  138.0607  162.2071 O.3     1  UNL1       -0.3530
     10 C         138.3841  137.4026  165.8399 C.3     1  UNL1        0.1202
     11 C         137.8800  138.5773  166.6248 C.3     1  UNL1        0.2226
     12 O         138.7530  139.2146  167.6650 O.3     1  UNL1       -0.4740
     13 C         142.2391  141.7720  166.4175 C.ar    1  UNL1        0.0686
     14 C         140.9612  141.8116  165.6330 C.ar    1  UNL1        0.0134
     15 C         139.7991  140.9591  166.0488 C.ar    1  UNL1        0.0376
     16 C         139.9150  140.0671  167.2492 C.ar    1  UNL1        0.1387
     17 C         141.1928  140.0275  168.0337 C.ar    1  UNL1        0.0376
     18 C         142.3549  140.8800  167.6179 C.ar    1  UNL1        0.0134
     19 N         144.5631  143.4770  165.5859 N.1     1  UNL1       -0.1908
     20 C         143.4011  142.6245  166.0017 C.1     1  UNL1        0.1004
     21 C         142.6720  138.4994  159.7851 C.3     1  UNL1        0.0737
     22 C         143.7490  139.5434  159.8078 C.3     1  UNL1        0.0361
     23 C         143.4088  140.9645  160.1464 C.3     1  UNL1        0.0925
     24 N         141.9759  141.3707  160.3244 N.3     1  UNL1       -0.1830
     25 H         141.5145  140.6111  160.8249 H       1  UNL1        0.1484
     26 S         141.6405  142.6372  161.0549 S.O2    1  UNL1        0.0450
     27 O         141.0594  143.2094  159.7961 O.2     1  UNL1       -0.1572
     28 O         142.2217  142.0650  162.3138 O.2     1  UNL1       -0.1572
     29 C         141.3052  143.9037  161.7854 C.3     1  UNL1        0.1952
     30 C         140.1417  143.9382  162.7314 C.ar    1  UNL1        0.0029
     31 C         138.9354  143.0863  162.4682 C.ar    1  UNL1       -0.0025
     32 C         137.7719  143.1209  163.4143 C.ar    1  UNL1       -0.0003
     33 C         137.8146  144.0073  164.6236 C.ar    1  UNL1       -0.0000
     34 C         139.0208  144.8592  164.8868 C.ar    1  UNL1       -0.0003
     35 C         140.1843  144.8246  163.9407 C.ar    1  UNL1       -0.0025
@<TRIPOS>BOND
     1    19    20    3
     2    20    13    1
     3    13    14   ar
     4    14    15   ar
     5    15    16   ar
     6    16    12    1
     7    12    11    1
     8    11    10    1
     9    10     1    1
    10     1     2    1
    11     2     3    1
    12     3     4    1
    13     4     5    1
    14     5    21    1
    15    21    22    1
    16    22    23    1
    17    23    24    1
    18    24    26    1
    19    26    27    2
    20    26    28    2
    21    26    29    1
    22    29    30    1
    23    30    31   ar
    24    31    32   ar
    25    32    33   ar
    26    33    34   ar
    27    34    35   ar
    28     5     6    1
    29     6     7    1
    30     7     8    1
    31     7     9    1
    32    16    17   ar
    33    17    18   ar
    34    18    13   ar
    35     8     1    1
    36     9     3    1
    37    35    30   ar
    38    24    25    1
@<TRIPOS>MOLECULE
*****
 35 38 0 0 0
SMALL
GASTEIGER

@<TRIPOS>ATOM
      1 N         144.2829  140.1751  162.8906 N.3     1  UNL1       -0.2653
      2 C         144.2434  141.0490  161.6722 C.3     1  UNL1        0.1036
      3 C         143.8175  140.4770  160.3526 C.3     1  UNL1        0.1470
      4 C         143.3916  139.9051  159.0329 C.3     1  UNL1        0.1035
      5 N         143.0053  138.4592  158.9317 N.3     1  UNL1       -0.2685
      6 C         143.0448  137.5853  160.1502 C.3     1  UNL1        0.1035
      7 C         143.4707  138.1573  161.4698 C.3     1  UNL1        0.1470
      8 C         143.8966  138.7292  162.7895 C.3     1  UNL1        0.1036
      9 O         143.4312  139.0312  160.2514 O.3     1  UNL1       -0.3530
     10 C         144.7088  140.7470  164.2104 C.3     1  UNL1        0.1202
     11 C         143.9234  141.8632  164.8326 C.3     1  UNL1        0.2226
     12 O         142.4984  142.0953  164.4256 O.3     1  UNL1       -0.4740
     13 C         139.2132  139.5868  166.2047 C.ar    1  UNL1        0.0686
     14 C         139.7085  140.8007  166.9337 C.ar    1  UNL1        0.0134
     15 C         140.8036  141.6368  166.3406 C.ar    1  UNL1        0.0376
     16 C         141.4033  141.2591  165.0186 C.ar    1  UNL1        0.1387
     17 C         140.9081  140.0453  164.2897 C.ar    1  UNL1        0.0376
     18 C         139.8130  139.2092  164.8828 C.ar    1  UNL1        0.0134
     19 N         137.0231  137.9146  167.3908 N.1     1  UNL1       -0.1908
     20 C         138.1182  138.7507  166.7978 C.1     1  UNL1        0.1004
     21 C         142.5794  137.8873  157.6121 C.3     1  UNL1        0.0737
     22 C         141.1226  137.8121  157.2622 C.3     1  UNL1        0.0361
     23 C         140.1315  138.6720  157.9890 C.3     1  UNL1        0.0925
     24 N         139.8339  138.4140  159.4363 N.3     1  UNL1       -0.1830
     25 H         140.6986  138.5849  159.9497 H       1  UNL1        0.1484
     26 S         138.7566  139.1931  160.1310 S.O2    1  UNL1        0.0450
     27 O         138.3112  139.7527  158.8126 O.2     1  UNL1       -0.1572
     28 O         139.2020  138.6334  161.4495 O.2     1  UNL1       -0.1572
     29 C         137.6793  139.9721  160.8256 C.3     1  UNL1        0.1952
     30 C         138.0443  141.0783  161.7707 C.ar    1  UNL1        0.0029
     31 C         137.3211  141.2176  163.0774 C.ar    1  UNL1       -0.0025
     32 C         137.6861  142.3238  164.0224 C.ar    1  UNL1       -0.0003
     33 C         138.7743  143.2907  163.6607 C.ar    1  UNL1       -0.0000
     34 C         139.4976  143.1514  162.3540 C.ar    1  UNL1       -0.0003
     35 C         139.1326  142.0452  161.4090 C.ar    1  UNL1       -0.0025
@<TRIPOS>BOND
     1    19    20    3
     2    20    13    1
     3    13    14   ar
     4    14    15   ar
     5    15    16   ar
     6    16    12    1
     7    12    11    1
     8    11    10    1
     9    10     1    1
    10     1     2    1
    11     2     3    1
    12     3     4    1
    13     4     5    1
    14     5    21    1
    15    21    22    1
    16    22    23    1
    17    23    24    1
    18    24    26    1
    19    26    27    2
    20    26    28    2
    21    26    29    1
    22    29    30    1
    23    30    31   ar
    24    31    32   ar
    25    32    33   ar
    26    33    34   ar
    27    34    35   ar
    28     5     6    1
    29     6     7    1
    30     7     8    1
    31     7     9    1
    32    16    17   ar
    33    17    18   ar
    34    18    13   ar
    35     8     1    1
    36     9     3    1
    37    35    30   ar
    38    24    25    1
@<TRIPOS>MOLECULE
*****
 35 38 0 0 0
SMALL
GASTEIGER

@<TRIPOS>ATOM
      1 N         139.4015  137.6312  164.4952 N.3     1  UNL1       -0.2653
      2 C         140.8762  137.6647  164.7673 C.3     1  UNL1        0.1036
      3 C         141.8402  137.9163  163.6460 C.3     1  UNL1        0.1470
      4 C         142.8043  138.1679  162.5247 C.3     1  UNL1        0.1035
      5 N         142.2936  138.3859  161.1312 N.3     1  UNL1       -0.2685
      6 C         140.8189  138.3523  160.8591 C.3     1  UNL1        0.1035
      7 C         139.8549  138.1007  161.9804 C.3     1  UNL1        0.1470
      8 C         138.8908  137.8492  163.1017 C.3     1  UNL1        0.1036
      9 O         141.3295  138.1343  162.2526 O.3     1  UNL1       -0.3530
     10 C         138.4374  137.3796  165.6165 C.3     1  UNL1        0.1202
     11 C         137.9489  138.5225  166.4562 C.3     1  UNL1        0.2226
     12 O         138.3947  139.9218  166.1508 O.3     1  UNL1       -0.4740
     13 C         141.9720  141.6547  168.2604 C.ar    1  UNL1        0.0686
     14 C         141.1000  140.6548  168.9604 C.ar    1  UNL1        0.0134
     15 C         139.9076  140.0772  168.2572 C.ar    1  UNL1        0.0376
     16 C         139.5871  140.4994  166.8540 C.ar    1  UNL1        0.1387
     17 C         140.4590  141.4992  166.1540 C.ar    1  UNL1        0.0376
     18 C         141.6515  142.0769  166.8572 C.ar    1  UNL1        0.0134
     19 N         144.3567  142.8099  169.6668 N.1     1  UNL1       -0.1908
     20 C         143.1644  142.2323  168.9636 C.1     1  UNL1        0.1004
     21 C         143.2577  138.6374  160.0100 C.3     1  UNL1        0.0737
     22 C         143.0558  139.8097  159.0961 C.3     1  UNL1        0.0361
     23 C         142.8049  141.1730  159.6692 C.3     1  UNL1        0.0925
     24 N         142.8923  141.3914  161.1506 N.3     1  UNL1       -0.1830
     25 H         143.8805  141.3397  161.3981 H       1  UNL1        0.1484
     26 S         142.3603  142.6571  161.7548 S.O2    1  UNL1        0.0450
     27 O         142.5493  142.0816  163.1270 O.2     1  UNL1       -0.1572
     28 O         142.1712  143.2327  160.3826 O.2     1  UNL1       -0.1572
     29 C         141.8283  143.9228  162.3590 C.3     1  UNL1        0.1952
     30 C         140.5002  143.9205  163.0564 C.ar    1  UNL1        0.0029
     31 C         140.3153  144.7073  164.3200 C.ar    1  UNL1       -0.0025
     32 C         138.9873  144.7051  165.0173 C.ar    1  UNL1       -0.0003
     33 C         137.8442  143.9160  164.4511 C.ar    1  UNL1       -0.0000
     34 C         138.0291  143.1292  163.1876 C.ar    1  UNL1       -0.0003
     35 C         139.3571  143.1314  162.4902 C.ar    1  UNL1       -0.0025
@<TRIPOS>BOND
     1    19    20    3
     2    20    13    1
     3    13    14   ar
     4    14    15   ar
     5    15    16   ar
     6    16    12    1
     7    12    11    1
     8    11    10    1
     9    10     1    1
    10     1     2    1
    11     2     3    1
    12     3     4    1
    13     4     5    1
    14     5    21    1
    15    21    22    1
    16    22    23    1
    17    23    24    1
    18    24    26    1
    19    26    27    2
    20    26    28    2
    21    26    29    1
    22    29    30    1
    23    30    31   ar
    24    31    32   ar
    25    32    33   ar
    26    33    34   ar
    27    34    35   ar
    28     5     6    1
    29     6     7    1
    30     7     8    1
    31     7     9    1
    32    16    17   ar
    33    17    18   ar
    34    18    13   ar
    35     8     1    1
    36     9     3    1
    37    35    30   ar
    38    24    25    1
@<TRIPOS>MOLECULE
*****
 35 38 0 0 0
SMALL
GASTEIGER

@<TRIPOS>ATOM
      1 N         139.5200  137.8499  164.5201 N.3     1  UNL1       -0.2653
      2 C         138.9861  138.1456  163.1499 C.3     1  UNL1        0.1036
      3 C         139.9330  138.3794  162.0104 C.3     1  UNL1        0.1470
      4 C         140.8800  138.6133  160.8708 C.3     1  UNL1        0.1035
      5 N         142.3609  138.5514  161.1015 N.3     1  UNL1       -0.2685
      6 C         142.8948  138.2557  162.4718 C.3     1  UNL1        0.1035
      7 C         141.9478  138.0219  163.6113 C.3     1  UNL1        0.1470
      8 C         141.0008  137.7881  164.7508 C.3     1  UNL1        0.1036
      9 O         141.4139  138.3176  162.2411 O.3     1  UNL1       -0.3530
     10 C         138.5730  137.6161  165.6597 C.3     1  UNL1        0.1202
     11 C         137.9785  138.7823  166.3922 C.3     1  UNL1        0.2226
     12 O         138.1372  138.8935  167.8797 O.3     1  UNL1       -0.4740
     13 C         141.0968  141.8055  169.6151 C.ar    1  UNL1        0.0686
     14 C         141.2803  141.2929  168.2174 C.ar    1  UNL1        0.0134
     15 C         140.2938  140.3223  167.6389 C.ar    1  UNL1        0.0376
     16 C         139.1237  139.8642  168.4581 C.ar    1  UNL1        0.1387
     17 C         138.9402  140.3767  169.8558 C.ar    1  UNL1        0.0376
     18 C         139.9267  141.3474  170.4343 C.ar    1  UNL1        0.0134
     19 N         143.0698  143.7467  170.7720 N.1     1  UNL1       -0.1908
     20 C         142.0833  142.7761  170.1936 C.1     1  UNL1        0.1004
     21 C         143.3079  138.7852  159.9620 C.3     1  UNL1        0.0737
     22 C         143.7775  140.1753  159.6502 C.3     1  UNL1        0.0361
     23 C         143.2335  141.3413  160.4211 C.3     1  UNL1        0.0925
     24 N         144.1674  142.2527  161.1608 N.3     1  UNL1       -0.1830
     25 H         144.3886  143.0229  160.5296 H       1  UNL1        0.1484
     26 S         143.7423  142.8672  162.4615 S.O2    1  UNL1        0.0450
     27 O         142.9431  141.6387  162.7806 O.2     1  UNL1       -0.1572
     28 O         144.5414  144.0958  162.1423 O.2     1  UNL1       -0.1572
     29 C         143.3171  143.4816  163.7621 C.3     1  UNL1        0.1952
     30 C         141.8830  143.8649  163.9772 C.ar    1  UNL1        0.0029
     31 C         141.1356  143.3367  165.1656 C.ar    1  UNL1       -0.0025
     32 C         139.7014  143.7200  165.3807 C.ar    1  UNL1       -0.0003
     33 C         139.0147  144.6316  164.4074 C.ar    1  UNL1       -0.0000
     34 C         139.7620  145.1598  163.2190 C.ar    1  UNL1       -0.0003
     35 C         141.1962  144.7765  163.0039 C.ar    1  UNL1       -0.0025
@<TRIPOS>BOND
     1    19    20    3
     2    20    13    1
     3    13    14   ar
     4    14    15   ar
     5    15    16   ar
     6    16    12    1
     7    12    11    1
     8    11    10    1
     9    10     1    1
    10     1     2    1
    11     2     3    1
    12     3     4    1
    13     4     5    1
    14     5    21    1
    15    21    22    1
    16    22    23    1
    17    23    24    1
    18    24    26    1
    19    26    27    2
    20    26    28    2
    21    26    29    1
    22    29    30    1
    23    30    31   ar
    24    31    32   ar
    25    32    33   ar
    26    33    34   ar
    27    34    35   ar
    28     5     6    1
    29     6     7    1
    30     7     8    1
    31     7     9    1
    32    16    17   ar
    33    17    18   ar
    34    18    13   ar
    35     8     1    1
    36     9     3    1
    37    35    30   ar
    38    24    25    1
@<TRIPOS>MOLECULE
*****
 35 38 0 0 0
SMALL
GASTEIGER

@<TRIPOS>ATOM
      1 N         144.0836  139.3331  161.5626 N.3     1  UNL1       -0.2653
      2 C         144.4168  139.7240  162.9719 C.3     1  UNL1        0.1036
      3 C         144.3745  141.1668  163.3798 C.3     1  UNL1        0.1470
      4 C         144.3322  142.6097  163.7879 C.3     1  UNL1        0.1035
      5 N         143.9567  143.6616  162.7866 N.3     1  UNL1       -0.2685
      6 C         143.6234  143.2705  161.3772 C.3     1  UNL1        0.1035
      7 C         143.6657  141.8277  160.9693 C.3     1  UNL1        0.1470
      8 C         143.7081  140.3849  160.5613 C.3     1  UNL1        0.1036
      9 O         143.9990  142.2187  162.3785 O.3     1  UNL1       -0.3530
     10 C         144.1259  137.8902  161.1545 C.3     1  UNL1        0.1202
     11 C         142.8487  137.1385  160.9230 C.3     1  UNL1        0.2226
     12 O         141.5369  137.8660  160.9382 O.3     1  UNL1       -0.4740
     13 C         139.0826  138.0014  164.7075 C.ar    1  UNL1        0.0686
     14 C         140.4195  137.3211  164.7070 C.ar    1  UNL1        0.0134
     15 C         141.2376  137.2759  163.4506 C.ar    1  UNL1        0.0376
     16 C         140.7188  137.9111  162.1946 C.ar    1  UNL1        0.1387
     17 C         139.3820  138.5915  162.1951 C.ar    1  UNL1        0.0376
     18 C         138.5639  138.6366  163.4515 C.ar    1  UNL1        0.0134
     19 N         137.4464  138.0917  167.2203 N.1     1  UNL1       -0.1908
     20 C         138.2645  138.0465  165.9639 C.1     1  UNL1        0.1004
     21 C         143.9143  145.1043  163.1946 C.3     1  UNL1        0.0737
     22 C         142.8074  145.6024  164.0758 C.3     1  UNL1        0.0361
     23 C         141.3964  145.1554  163.8327 C.3     1  UNL1        0.0925
     24 N         141.1272  143.7816  163.2940 N.3     1  UNL1       -0.1830
     25 H         142.0294  143.3884  163.0263 H       1  UNL1        0.1484
     26 S         140.4471  142.7585  164.1547 S.O2    1  UNL1        0.0450
     27 O         140.1596  143.8134  165.1816 O.2     1  UNL1       -0.1572
     28 O         140.7345  141.7036  163.1278 O.2     1  UNL1       -0.1572
     29 C         139.7670  141.7354  165.0154 C.3     1  UNL1        0.1952
     30 C         140.5289  141.0516  166.1117 C.ar    1  UNL1        0.0029
     31 C         139.9389  140.9547  167.4874 C.ar    1  UNL1       -0.0025
     32 C         140.7008  140.2709  168.5837 C.ar    1  UNL1       -0.0003
     33 C         142.0526  139.6841  168.3044 C.ar    1  UNL1       -0.0000
     34 C         142.6426  139.7810  166.9287 C.ar    1  UNL1       -0.0003
     35 C         141.8807  140.4648  165.8324 C.ar    1  UNL1       -0.0025
@<TRIPOS>BOND
     1    19    20    3
     2    20    13    1
     3    13    14   ar
     4    14    15   ar
     5    15    16   ar
     6    16    12    1
     7    12    11    1
     8    11    10    1
     9    10     1    1
    10     1     2    1
    11     2     3    1
    12     3     4    1
    13     4     5    1
    14     5    21    1
    15    21    22    1
    16    22    23    1
    17    23    24    1
    18    24    26    1
    19    26    27    2
    20    26    28    2
    21    26    29    1
    22    29    30    1
    23    30    31   ar
    24    31    32   ar
    25    32    33   ar
    26    33    34   ar
    27    34    35   ar
    28     5     6    1
    29     6     7    1
    30     7     8    1
    31     7     9    1
    32    16    17   ar
    33    17    18   ar
    34    18    13   ar
    35     8     1    1
    36     9     3    1
    37    35    30   ar
    38    24    25    1
@<TRIPOS>MOLECULE
*****
 35 38 0 0 0
SMALL
GASTEIGER

@<TRIPOS>ATOM
      1 N         139.3367  137.7820  164.3378 N.3     1  UNL1       -0.2653
      2 C         138.6882  138.0365  163.0094 C.3     1  UNL1        0.1036
      3 C         139.5318  138.1709  161.7764 C.3     1  UNL1        0.1470
      4 C         140.3754  138.3052  160.5434 C.3     1  UNL1        0.1035
      5 N         141.8675  138.1851  160.6388 N.3     1  UNL1       -0.2685
      6 C         142.5160  137.9306  161.9673 C.3     1  UNL1        0.1035
      7 C         141.6724  137.7962  163.2002 C.3     1  UNL1        0.1470
      8 C         140.8288  137.6619  164.4332 C.3     1  UNL1        0.1036
      9 O         141.0239  138.0507  161.8719 O.3     1  UNL1       -0.3530
     10 C         138.4930  137.6476  165.5708 C.3     1  UNL1        0.1202
     11 C         138.2350  138.8447  166.4371 C.3     1  UNL1        0.2226
     12 O         139.2708  139.9234  166.5537 O.3     1  UNL1       -0.4740
     13 C         139.1073  143.5035  163.8323 C.ar    1  UNL1        0.0686
     14 C         138.0615  142.4332  163.7274 C.ar    1  UNL1        0.0134
     15 C         138.1160  141.2399  164.6346 C.ar    1  UNL1        0.0376
     16 C         139.2163  141.1167  165.6466 C.ar    1  UNL1        0.1387
     17 C         140.2621  142.1869  165.7515 C.ar    1  UNL1        0.0376
     18 C         140.2076  143.3803  164.8444 C.ar    1  UNL1        0.0134
     19 N         138.9983  145.8902  162.0181 N.1     1  UNL1       -0.1908
     20 C         139.0528  144.6968  162.9252 C.1     1  UNL1        0.1004
     21 C         142.7112  138.3195  159.4059 C.3     1  UNL1        0.0737
     22 C         143.7214  139.4237  159.3050 C.3     1  UNL1        0.0361
     23 C         143.2886  140.8013  158.8989 C.3     1  UNL1        0.0925
     24 N         142.0401  141.3967  159.4791 N.3     1  UNL1       -0.1830
     25 H         141.5847  140.6594  160.0170 H       1  UNL1        0.1484
     26 S         142.1276  142.5960  160.3758 S.O2    1  UNL1        0.0450
     27 O         140.8274  142.2111  161.0173 O.2     1  UNL1       -0.1572
     28 O         143.4277  142.9808  159.7344 O.2     1  UNL1       -0.1572
     29 C         142.2150  143.7952  161.2725 C.3     1  UNL1        0.1952
     30 C         142.9433  143.7021  162.5806 C.ar    1  UNL1        0.0029
     31 C         143.3590  142.3632  163.1139 C.ar    1  UNL1       -0.0025
     32 C         144.0873  142.2701  164.4219 C.ar    1  UNL1       -0.0003
     33 C         144.3998  143.5159  165.1966 C.ar    1  UNL1       -0.0000
     34 C         143.9841  144.8548  164.6633 C.ar    1  UNL1       -0.0003
     35 C         143.2559  144.9479  163.3553 C.ar    1  UNL1       -0.0025
@<TRIPOS>BOND
     1    19    20    3
     2    20    13    1
     3    13    14   ar
     4    14    15   ar
     5    15    16   ar
     6    16    12    1
     7    12    11    1
     8    11    10    1
     9    10     1    1
    10     1     2    1
    11     2     3    1
    12     3     4    1
    13     4     5    1
    14     5    21    1
    15    21    22    1
    16    22    23    1
    17    23    24    1
    18    24    26    1
    19    26    27    2
    20    26    28    2
    21    26    29    1
    22    29    30    1
    23    30    31   ar
    24    31    32   ar
    25    32    33   ar
    26    33    34   ar
    27    34    35   ar
    28     5     6    1
    29     6     7    1
    30     7     8    1
    31     7     9    1
    32    16    17   ar
    33    17    18   ar
    34    18    13   ar
    35     8     1    1
    36     9     3    1
    37    35    30   ar
    38    24    25    1
