@<TRIPOS>MOLECULE
*****
 42 46 0 0 0
SMALL
GASTEIGER

@<TRIPOS>ATOM
      1 C         143.2812  139.4370  163.1088 C.ar    1  UNL1        0.1539
      2 N         144.4934  139.2920  163.9802 N.ar    1  UNL1       -0.1328
      3 N         145.4552  140.4341  164.1231 N.ar    1  UNL1       -0.1452
      4 C         145.2047  141.7212  163.3946 C.ar    1  UNL1        0.1223
      5 C         143.9925  141.8662  162.5232 C.ar    1  UNL1        0.0267
      6 C         143.7420  143.1533  161.7948 C.ar    1  UNL1        0.0386
      7 C         142.5297  143.2982  160.9234 C.ar    1  UNL1        0.1386
      8 C         141.5679  142.1561  160.7804 C.ar    1  UNL1        0.0370
      9 C         141.8184  140.8690  161.5089 C.ar    1  UNL1        0.0060
     10 C         143.0307  140.7241  162.3803 C.ar    1  UNL1        0.0352
     11 N         142.3193  138.2948  162.9658 N.pl3   1  UNL1       -0.2941
     12 H         142.5607  137.5137  162.4173 H       1  UNL1        0.1537
     13 N         139.2833  138.6171  165.3626 N.ar    1  UNL1       -0.2387
     14 C         140.7577  138.6953  165.0980 C.ar    1  UNL1        0.1118
     15 C         140.9897  138.3428  163.6586 C.ar    1  UNL1        0.0896
     16 C         139.6587  138.0468  163.0335 C.ar    1  UNL1        0.1363
     17 N         138.6040  138.2163  164.0866 N.ar    1  UNL1       -0.1658
     18 C         138.6069  138.8915  166.6730 C.3     1  UNL1        0.2122
     19 O         138.9541  139.5901  169.1511 O.2     1  UNL1       -0.2726
     20 C         139.2781  139.7588  167.6963 C.2     1  UNL1        0.2510
     21 N         140.2733  140.7948  167.2647 N.am    1  UNL1       -0.2805
     22 H         140.4860  140.9055  166.3099 H       1  UNL1        0.1550
     23 C         140.9445  141.6622  168.2881 C.ar    1  UNL1        0.0804
     24 C         140.1995  142.8092  168.9040 C.ar    1  UNL1        0.0171
     25 C         140.8707  143.6765  169.9273 C.ar    1  UNL1        0.0037
     26 C         142.2869  143.3969  170.3347 C.ar    1  UNL1        0.0321
     27 C         143.0321  142.2499  169.7188 C.ar    1  UNL1        0.1686
     28 F         144.4483  141.9703  170.1262 F       1  UNL1       -0.2018
     29 C         142.3609  141.3825  168.6955 C.ar    1  UNL1        0.1807
     30 F         143.1059  140.2356  168.0796 F       1  UNL1       -0.2005
     31 O         142.2793  144.5853  160.1949 O.3     1  UNL1       -0.4754
     32 C         140.8807  145.1102  160.0589 C.3     1  UNL1        0.2068
     33 C         140.2617  145.8940  161.1780 C.3     1  UNL1        0.0646
     34 C         139.2477  145.2478  162.0749 C.3     1  UNL1        0.0760
     35 N         139.6662  144.1593  163.0182 N.3     1  UNL1       -0.2716
     36 C         140.8486  144.1981  163.9404 C.3     1  UNL1        0.0722
     37 C         140.8890  142.9035  164.6971 C.3     1  UNL1        0.0188
     38 C         139.7316  142.0646  164.2425 C.3     1  UNL1        0.0199
     39 C         138.9758  142.8407  163.2049 C.3     1  UNL1        0.0870
     40 C         137.7458  142.3793  162.4812 C.3     1  UNL1        0.1530
     41 O         136.7470  141.5058  163.1809 O.3     1  UNL1       -0.3806
     42 H         137.1512  140.6464  163.3780 H       1  UNL1        0.2105
@<TRIPOS>BOND
     1    19    20    2
     2    20    18    1
     3    18    13    1
     4    13    14   ar
     5    14    15   ar
     6    15    11    1
     7    11     1    1
     8     1     2   ar
     9     2     3   ar
    10     3     4   ar
    11     4     5   ar
    12     5     6   ar
    13     6     7   ar
    14     7    31    1
    15    31    32    1
    16    32    33    1
    17    33    34    1
    18    34    35    1
    19    35    36    1
    20    36    37    1
    21    37    38    1
    22    38    39    1
    23    39    40    1
    24    40    41    1
    25     7     8   ar
    26     8     9   ar
    27     9    10   ar
    28    15    16   ar
    29    16    17   ar
    30    20    21   am
    31    21    23    1
    32    23    24   ar
    33    24    25   ar
    34    25    26   ar
    35    26    27   ar
    36    27    28    1
    37    27    29   ar
    38    29    30    1
    39    17    13   ar
    40    29    23   ar
    41    10     1   ar
    42    10     5   ar
    43    39    35    1
    44    11    12    1
    45    41    42    1
    46    21    22    1
@<TRIPOS>MOLECULE
*****
 42 46 0 0 0
SMALL
GASTEIGER

@<TRIPOS>ATOM
      1 C         142.3213  139.1481  160.0657 C.ar    1  UNL1        0.1539
      2 N         143.6869  138.9381  159.4817 N.ar    1  UNL1       -0.1328
      3 N         144.3850  140.0665  158.7823 N.ar    1  UNL1       -0.1452
      4 C         143.7176  141.4049  158.6669 C.ar    1  UNL1        0.1223
      5 C         142.3521  141.6149  159.2509 C.ar    1  UNL1        0.0267
      6 C         141.6847  142.9533  159.1356 C.ar    1  UNL1        0.0386
      7 C         140.3191  143.1632  159.7196 C.ar    1  UNL1        0.1386
      8 C         139.6209  142.0348  160.4190 C.ar    1  UNL1        0.0370
      9 C         140.2883  140.6964  160.5344 C.ar    1  UNL1        0.0060
     10 C         141.6539  140.4865  159.9503 C.ar    1  UNL1        0.0352
     11 N         141.6231  138.0196  160.7651 N.pl3   1  UNL1       -0.2941
     12 H         141.1588  137.3276  160.2409 H       1  UNL1        0.1537
     13 N         142.3518  138.0860  164.5770 N.ar    1  UNL1       -0.2387
     14 C         142.7791  138.3135  163.1573 C.ar    1  UNL1        0.1118
     15 C         141.6322  137.9456  162.2633 C.ar    1  UNL1        0.0896
     16 C         140.4959  137.4908  163.1305 C.ar    1  UNL1        0.1363
     17 N         140.9406  137.5776  164.5605 N.ar    1  UNL1       -0.1658
     18 C         143.1886  138.3250  165.7987 C.3     1  UNL1        0.2122
     19 O         143.2062  138.8683  168.3392 O.2     1  UNL1       -0.2726
     20 C         142.6070  139.0497  166.9761 C.2     1  UNL1        0.2510
     21 N         141.4261  139.9558  166.7905 N.am    1  UNL1       -0.2805
     22 H         141.0328  140.0749  165.8959 H       1  UNL1        0.1550
     23 C         140.8444  140.6805  167.9680 C.ar    1  UNL1        0.0804
     24 C         139.7227  140.0631  168.7493 C.ar    1  UNL1        0.0171
     25 C         139.1410  140.7879  169.9268 C.ar    1  UNL1        0.0037
     26 C         139.6811  142.1300  170.3230 C.ar    1  UNL1        0.0321
     27 C         140.8029  142.7475  169.5417 C.ar    1  UNL1        0.1686
     28 F         141.3430  144.0896  169.9378 F       1  UNL1       -0.2018
     29 C         141.3846  142.0228  168.3642 C.ar    1  UNL1        0.1807
     30 F         142.5063  142.6402  167.5829 F       1  UNL1       -0.2005
     31 O         139.6517  144.5016  159.6042 O.3     1  UNL1       -0.4754
     32 C         140.1325  145.6536  160.4359 C.3     1  UNL1        0.2068
     33 C         139.7697  145.7324  161.8892 C.3     1  UNL1        0.0646
     34 C         140.7960  145.4170  162.9366 C.3     1  UNL1        0.0760
     35 N         141.1661  143.9910  163.2185 N.3     1  UNL1       -0.2716
     36 C         140.3039  142.9762  163.9090 C.3     1  UNL1        0.0722
     37 C         141.0684  141.6874  163.9767 C.3     1  UNL1        0.0188
     38 C         142.4032  141.9056  163.3280 C.3     1  UNL1        0.0199
     39 C         142.4636  143.3293  162.8594 C.3     1  UNL1        0.0870
     40 C         143.6186  143.9775  162.1554 C.3     1  UNL1        0.1530
     41 O         144.1915  145.2611  162.6789 O.3     1  UNL1       -0.3806
     42 H         143.5324  145.9678  162.5939 H       1  UNL1        0.2105
@<TRIPOS>BOND
     1    19    20    2
     2    20    18    1
     3    18    13    1
     4    13    14   ar
     5    14    15   ar
     6    15    11    1
     7    11     1    1
     8     1     2   ar
     9     2     3   ar
    10     3     4   ar
    11     4     5   ar
    12     5     6   ar
    13     6     7   ar
    14     7    31    1
    15    31    32    1
    16    32    33    1
    17    33    34    1
    18    34    35    1
    19    35    36    1
    20    36    37    1
    21    37    38    1
    22    38    39    1
    23    39    40    1
    24    40    41    1
    25     7     8   ar
    26     8     9   ar
    27     9    10   ar
    28    15    16   ar
    29    16    17   ar
    30    20    21   am
    31    21    23    1
    32    23    24   ar
    33    24    25   ar
    34    25    26   ar
    35    26    27   ar
    36    27    28    1
    37    27    29   ar
    38    29    30    1
    39    17    13   ar
    40    29    23   ar
    41    10     1   ar
    42    10     5   ar
    43    39    35    1
    44    11    12    1
    45    41    42    1
    46    21    22    1
@<TRIPOS>MOLECULE
*****
 42 46 0 0 0
SMALL
GASTEIGER

@<TRIPOS>ATOM
      1 C         143.6496  142.9624  161.5705 C.ar    1  UNL1        0.1539
      2 N         143.7559  143.2558  160.1034 N.ar    1  UNL1       -0.1328
      3 N         142.7239  144.1139  159.4335 N.ar    1  UNL1       -0.1452
      4 C         141.5858  144.6786  160.2308 C.ar    1  UNL1        0.1223
      5 C         141.4795  144.3852  161.6979 C.ar    1  UNL1        0.0267
      6 C         140.3413  144.9499  162.4952 C.ar    1  UNL1        0.0386
      7 C         140.2350  144.6565  163.9624 C.ar    1  UNL1        0.1386
      8 C         141.2670  143.7983  164.6323 C.ar    1  UNL1        0.0370
      9 C         142.4052  143.2336  163.8350 C.ar    1  UNL1        0.0060
     10 C         142.5114  143.5271  162.3678 C.ar    1  UNL1        0.0352
     11 N         144.6816  142.1043  162.2404 N.pl3   1  UNL1       -0.2941
     12 H         145.6207  142.3980  162.2724 H       1  UNL1        0.1537
     13 N         143.8099  139.0701  164.4987 N.ar    1  UNL1       -0.2387
     14 C         144.2766  140.4855  164.3287 C.ar    1  UNL1        0.1118
     15 C         144.2826  140.7986  162.8617 C.ar    1  UNL1        0.0896
     16 C         143.8196  139.5767  162.1251 C.ar    1  UNL1        0.1363
     17 N         143.5275  138.5084  163.1368 N.ar    1  UNL1       -0.1658
     18 C         143.6532  138.3440  165.8018 C.3     1  UNL1        0.2122
     19 O         143.3210  138.6644  168.3585 O.2     1  UNL1       -0.2726
     20 C         142.9431  139.0030  166.9469 C.2     1  UNL1        0.2510
     21 N         141.8551  140.0006  166.6806 N.am    1  UNL1       -0.2805
     22 H         141.6071  140.2228  165.7541 H       1  UNL1        0.1550
     23 C         141.1450  140.6596  167.8257 C.ar    1  UNL1        0.0804
     24 C         139.9660  139.9870  168.4641 C.ar    1  UNL1        0.0171
     25 C         139.2559  140.6461  169.6093 C.ar    1  UNL1        0.0037
     26 C         139.7248  141.9778  170.1161 C.ar    1  UNL1        0.0321
     27 C         140.9038  142.6504  169.4777 C.ar    1  UNL1        0.1686
     28 F         141.3727  143.9821  169.9843 F       1  UNL1       -0.2018
     29 C         141.6139  141.9914  168.3325 C.ar    1  UNL1        0.1807
     30 F         142.7929  142.6640  167.6941 F       1  UNL1       -0.2005
     31 O         139.0969  145.2211  164.7596 O.3     1  UNL1       -0.4754
     32 C         137.8703  144.3935  165.0059 C.3     1  UNL1        0.2068
     33 C         137.4391  143.3726  163.9951 C.3     1  UNL1        0.0646
     34 C         137.7105  141.9172  164.2364 C.3     1  UNL1        0.0760
     35 N         138.6349  141.1655  163.3250 N.3     1  UNL1       -0.2716
     36 C         139.1469  141.6438  161.9987 C.3     1  UNL1        0.0722
     37 C         140.0380  140.5774  161.4339 C.3     1  UNL1        0.0188
     38 C         140.0766  139.4401  162.4112 C.3     1  UNL1        0.0199
     39 C         139.2094  139.8035  163.5800 C.3     1  UNL1        0.0870
     40 C         138.9605  138.9542  164.7910 C.3     1  UNL1        0.1530
     41 O         140.0075  137.9859  165.2561 O.3     1  UNL1       -0.3806
     42 H         140.1226  137.2897  164.5905 H       1  UNL1        0.2105
@<TRIPOS>BOND
     1    19    20    2
     2    20    18    1
     3    18    13    1
     4    13    14   ar
     5    14    15   ar
     6    15    11    1
     7    11     1    1
     8     1     2   ar
     9     2     3   ar
    10     3     4   ar
    11     4     5   ar
    12     5     6   ar
    13     6     7   ar
    14     7    31    1
    15    31    32    1
    16    32    33    1
    17    33    34    1
    18    34    35    1
    19    35    36    1
    20    36    37    1
    21    37    38    1
    22    38    39    1
    23    39    40    1
    24    40    41    1
    25     7     8   ar
    26     8     9   ar
    27     9    10   ar
    28    15    16   ar
    29    16    17   ar
    30    20    21   am
    31    21    23    1
    32    23    24   ar
    33    24    25   ar
    34    25    26   ar
    35    26    27   ar
    36    27    28    1
    37    27    29   ar
    38    29    30    1
    39    17    13   ar
    40    29    23   ar
    41    10     1   ar
    42    10     5   ar
    43    39    35    1
    44    11    12    1
    45    41    42    1
    46    21    22    1
@<TRIPOS>MOLECULE
*****
 42 46 0 0 0
SMALL
GASTEIGER

@<TRIPOS>ATOM
      1 C         144.1764  142.3536  161.2026 C.ar    1  UNL1        0.1539
      2 N         144.6218  142.3092  159.7710 N.ar    1  UNL1       -0.1328
      3 N         143.8163  143.0034  158.7131 N.ar    1  UNL1       -0.1452
      4 C         142.5654  143.7421  159.0868 C.ar    1  UNL1        0.1223
      5 C         142.1200  143.7865  160.5184 C.ar    1  UNL1        0.0267
      6 C         140.8691  144.5251  160.8922 C.ar    1  UNL1        0.0386
      7 C         140.4237  144.5696  162.3238 C.ar    1  UNL1        0.1386
      8 C         141.2292  143.8753  163.3818 C.ar    1  UNL1        0.0370
      9 C         142.4801  143.1367  163.0081 C.ar    1  UNL1        0.0060
     10 C         142.9255  143.0923  161.5763 C.ar    1  UNL1        0.0352
     11 N         144.9819  141.6594  162.2606 N.pl3   1  UNL1       -0.2941
     12 H         145.9027  141.9521  162.4495 H       1  UNL1        0.1537
     13 N         143.7731  139.0292  164.8464 N.ar    1  UNL1       -0.2387
     14 C         144.5318  140.2770  164.5037 C.ar    1  UNL1        0.1118
     15 C         144.3844  140.5193  163.0307 C.ar    1  UNL1        0.0896
     16 C         143.5346  139.4213  162.4632 C.ar    1  UNL1        0.1363
     17 N         143.1568  138.5004  163.5853 N.ar    1  UNL1       -0.1658
     18 C         143.6520  138.4177  166.2108 C.3     1  UNL1        0.2122
     19 O         143.1085  138.7050  168.7350 O.2     1  UNL1       -0.2726
     20 C         142.9846  139.1792  167.3173 C.2     1  UNL1        0.2510
     21 N         142.1933  140.4150  167.0064 N.am    1  UNL1       -0.2805
     22 H         142.1120  140.7262  166.0759 H       1  UNL1        0.1550
     23 C         141.5259  141.1765  168.1130 C.ar    1  UNL1        0.0804
     24 C         142.1483  142.4361  168.6382 C.ar    1  UNL1        0.0171
     25 C         141.4809  143.1976  169.7449 C.ar    1  UNL1        0.0037
     26 C         140.1910  142.6995  170.3263 C.ar    1  UNL1        0.0321
     27 C         139.5685  141.4398  169.8012 C.ar    1  UNL1        0.1686
     28 F         138.2787  140.9416  170.3826 F       1  UNL1       -0.2018
     29 C         140.2360  140.6783  168.6945 C.ar    1  UNL1        0.1807
     30 F         139.6135  139.4186  168.1693 F       1  UNL1       -0.2005
     31 O         139.1728  145.3082  162.6976 O.3     1  UNL1       -0.4754
     32 C         137.9310  144.5470  163.0556 C.3     1  UNL1        0.2068
     33 C         137.6895  143.1874  162.4698 C.3     1  UNL1        0.0646
     34 C         137.5132  142.0024  163.3722 C.3     1  UNL1        0.0760
     35 N         137.8223  140.6236  162.8688 N.3     1  UNL1       -0.2716
     36 C         137.7025  140.1561  161.4485 C.3     1  UNL1        0.0722
     37 C         138.1116  138.7139  161.3991 C.3     1  UNL1        0.0188
     38 C         138.4843  138.2899  162.7889 C.3     1  UNL1        0.0199
     39 C         138.3055  139.4702  163.6972 C.3     1  UNL1        0.0870
     40 C         138.5645  139.4931  165.1744 C.3     1  UNL1        0.1530
     41 O         137.6032  138.8286  166.1149 O.3     1  UNL1       -0.3806
     42 H         136.7533  139.2956  166.0919 H       1  UNL1        0.2105
@<TRIPOS>BOND
     1    19    20    2
     2    20    18    1
     3    18    13    1
     4    13    14   ar
     5    14    15   ar
     6    15    11    1
     7    11     1    1
     8     1     2   ar
     9     2     3   ar
    10     3     4   ar
    11     4     5   ar
    12     5     6   ar
    13     6     7   ar
    14     7    31    1
    15    31    32    1
    16    32    33    1
    17    33    34    1
    18    34    35    1
    19    35    36    1
    20    36    37    1
    21    37    38    1
    22    38    39    1
    23    39    40    1
    24    40    41    1
    25     7     8   ar
    26     8     9   ar
    27     9    10   ar
    28    15    16   ar
    29    16    17   ar
    30    20    21   am
    31    21    23    1
    32    23    24   ar
    33    24    25   ar
    34    25    26   ar
    35    26    27   ar
    36    27    28    1
    37    27    29   ar
    38    29    30    1
    39    17    13   ar
    40    29    23   ar
    41    10     1   ar
    42    10     5   ar
    43    39    35    1
    44    11    12    1
    45    41    42    1
    46    21    22    1
@<TRIPOS>MOLECULE
*****
 42 46 0 0 0
SMALL
GASTEIGER

@<TRIPOS>ATOM
      1 C         142.7959  138.3655  161.9755 C.ar    1  UNL1        0.1539
      2 N         142.9075  137.7958  160.5924 N.ar    1  UNL1       -0.1328
      3 N         143.5096  138.6156  159.4900 N.ar    1  UNL1       -0.1452
      4 C         144.0001  140.0050  159.7707 C.ar    1  UNL1        0.1223
      5 C         143.8884  140.5747  161.1537 C.ar    1  UNL1        0.0267
      6 C         144.3789  141.9642  161.4344 C.ar    1  UNL1        0.0386
      7 C         144.2673  142.5339  162.8175 C.ar    1  UNL1        0.1386
      8 C         143.6652  141.7141  163.9200 C.ar    1  UNL1        0.0370
      9 C         143.1747  140.3246  163.6393 C.ar    1  UNL1        0.0060
     10 C         143.2864  139.7549  162.2562 C.ar    1  UNL1        0.0352
     11 N         142.1938  137.5456  163.0780 N.pl3   1  UNL1       -0.2941
     12 H         142.6763  136.7625  163.4290 H       1  UNL1        0.1537
     13 N         139.1186  138.6283  165.1843 N.ar    1  UNL1       -0.2387
     14 C         140.5881  138.3563  165.0553 C.ar    1  UNL1        0.1118
     15 C         140.8565  137.9191  163.6458 C.ar    1  UNL1        0.0896
     16 C         139.5530  137.9208  162.9037 C.ar    1  UNL1        0.1363
     17 N         138.4788  138.3591  163.8546 N.ar    1  UNL1       -0.1658
     18 C         138.4128  139.0886  166.4253 C.3     1  UNL1        0.2122
     19 O         139.0620  139.4284  168.9178 O.2     1  UNL1       -0.2726
     20 C         139.1659  139.8435  167.4801 C.2     1  UNL1        0.2510
     21 N         140.0229  141.0135  167.0974 N.am    1  UNL1       -0.2805
     22 H         140.0911  141.2860  166.1538 H       1  UNL1        0.1550
     23 C         140.7761  141.7685  168.1523 C.ar    1  UNL1        0.0804
     24 C         140.1658  142.9842  168.7845 C.ar    1  UNL1        0.0171
     25 C         140.9190  143.7391  169.8394 C.ar    1  UNL1        0.0037
     26 C         142.2824  143.2784  170.2621 C.ar    1  UNL1        0.0321
     27 C         142.8928  142.0626  169.6300 C.ar    1  UNL1        0.1686
     28 F         144.2562  141.6018  170.0527 F       1  UNL1       -0.2018
     29 C         142.1396  141.3077  168.5750 C.ar    1  UNL1        0.1807
     30 F         142.7499  140.0920  167.9429 F       1  UNL1       -0.2005
     31 O         144.7578  143.9234  163.0981 O.3     1  UNL1       -0.4754
     32 C         143.7924  145.0714  163.1101 C.3     1  UNL1        0.2068
     33 C         142.4699  144.9320  163.8040 C.3     1  UNL1        0.0646
     34 C         141.2015  144.9108  163.0035 C.3     1  UNL1        0.0760
     35 N         140.9268  143.7747  162.0634 N.3     1  UNL1       -0.2716
     36 C         141.1357  143.7891  160.5781 C.3     1  UNL1        0.0722
     37 C         140.7330  142.4480  160.0403 C.3     1  UNL1        0.0188
     38 C         140.2751  141.6047  161.1932 C.3     1  UNL1        0.0199
     39 C         140.3949  142.4246  162.4436 C.3     1  UNL1        0.0870
     40 C         140.0444  141.9737  163.8306 C.3     1  UNL1        0.1530
     41 O         138.9159  142.6296  164.5698 O.3     1  UNL1       -0.3806
     42 H         139.1435  143.5546  164.7526 H       1  UNL1        0.2105
@<TRIPOS>BOND
     1    19    20    2
     2    20    18    1
     3    18    13    1
     4    13    14   ar
     5    14    15   ar
     6    15    11    1
     7    11     1    1
     8     1     2   ar
     9     2     3   ar
    10     3     4   ar
    11     4     5   ar
    12     5     6   ar
    13     6     7   ar
    14     7    31    1
    15    31    32    1
    16    32    33    1
    17    33    34    1
    18    34    35    1
    19    35    36    1
    20    36    37    1
    21    37    38    1
    22    38    39    1
    23    39    40    1
    24    40    41    1
    25     7     8   ar
    26     8     9   ar
    27     9    10   ar
    28    15    16   ar
    29    16    17   ar
    30    20    21   am
    31    21    23    1
    32    23    24   ar
    33    24    25   ar
    34    25    26   ar
    35    26    27   ar
    36    27    28    1
    37    27    29   ar
    38    29    30    1
    39    17    13   ar
    40    29    23   ar
    41    10     1   ar
    42    10     5   ar
    43    39    35    1
    44    11    12    1
    45    41    42    1
    46    21    22    1
@<TRIPOS>MOLECULE
*****
 42 46 0 0 0
SMALL
GASTEIGER

@<TRIPOS>ATOM
      1 C         144.4002  140.7990  163.4853 C.ar    1  UNL1        0.1539
      2 N         144.7864  142.1813  163.0494 N.ar    1  UNL1       -0.1328
      3 N         144.3326  143.3716  163.8412 N.ar    1  UNL1       -0.1452
      4 C         143.4926  143.1797  165.0691 C.ar    1  UNL1        0.1223
      5 C         143.1064  141.7974  165.5050 C.ar    1  UNL1        0.0267
      6 C         142.2664  141.6054  166.7328 C.ar    1  UNL1        0.0386
      7 C         141.8801  140.2232  167.1688 C.ar    1  UNL1        0.1386
      8 C         142.3340  139.0327  166.3769 C.ar    1  UNL1        0.0370
      9 C         143.1740  139.2247  165.1491 C.ar    1  UNL1        0.0060
     10 C         143.5602  140.6071  164.7131 C.ar    1  UNL1        0.0352
     11 N         144.8540  139.6086  162.6934 N.pl3   1  UNL1       -0.2941
     12 H         145.7034  139.1636  162.9166 H       1  UNL1        0.1537
     13 N         143.0716  138.7734  159.3481 N.ar    1  UNL1       -0.2387
     14 C         144.0878  139.5486  160.1333 C.ar    1  UNL1        0.1118
     15 C         144.0137  139.0962  161.5615 C.ar    1  UNL1        0.0896
     16 C         142.9517  138.0414  161.6590 C.ar    1  UNL1        0.1363
     17 N         142.3694  137.8419  160.2910 N.ar    1  UNL1       -0.1658
     18 C         142.8046  138.9064  157.8781 C.3     1  UNL1        0.2122
     19 O         144.1051  137.7972  155.9216 O.2     1  UNL1       -0.2726
     20 C         143.0302  137.7372  156.9660 C.2     1  UNL1        0.2510
     21 N         142.1808  136.5080  157.0983 N.am    1  UNL1       -0.2805
     22 H         141.4753  136.4686  157.7838 H       1  UNL1        0.1550
     23 C         142.4064  135.3387  156.1862 C.ar    1  UNL1        0.0804
     24 C         141.7346  135.2925  154.8459 C.ar    1  UNL1        0.0171
     25 C         141.9602  134.1232  153.9338 C.ar    1  UNL1        0.0037
     26 C         142.8576  133.0001  154.3620 C.ar    1  UNL1        0.0321
     27 C         143.5294  133.0463  155.7025 C.ar    1  UNL1        0.1686
     28 F         144.4267  131.9233  156.1308 F       1  UNL1       -0.2018
     29 C         143.3038  134.2156  156.6146 C.ar    1  UNL1        0.1807
     30 F         143.9756  134.2618  157.9549 F       1  UNL1       -0.2005
     31 O         141.0401  140.0312  168.3966 O.3     1  UNL1       -0.4754
     32 C         139.5452  140.1111  168.3026 C.3     1  UNL1        0.2068
     33 C         138.8217  139.3740  167.2148 C.3     1  UNL1        0.0646
     34 C         138.5997  140.0295  165.8841 C.3     1  UNL1        0.0760
     35 N         138.8447  139.2612  164.6193 N.3     1  UNL1       -0.2716
     36 C         139.4331  137.8847  164.5239 C.3     1  UNL1        0.0722
     37 C         139.4965  137.5072  163.0735 C.3     1  UNL1        0.0188
     38 C         138.9472  138.6503  162.2726 C.3     1  UNL1        0.0199
     39 C         138.5444  139.7344  163.2279 C.3     1  UNL1        0.0870
     40 C         137.9464  141.0590  162.8570 C.3     1  UNL1        0.1530
     41 O         136.5148  141.3559  163.1922 O.3     1  UNL1       -0.3806
     42 H         135.9349  140.7679  162.6833 H       1  UNL1        0.2105
@<TRIPOS>BOND
     1    19    20    2
     2    20    18    1
     3    18    13    1
     4    13    14   ar
     5    14    15   ar
     6    15    11    1
     7    11     1    1
     8     1     2   ar
     9     2     3   ar
    10     3     4   ar
    11     4     5   ar
    12     5     6   ar
    13     6     7   ar
    14     7    31    1
    15    31    32    1
    16    32    33    1
    17    33    34    1
    18    34    35    1
    19    35    36    1
    20    36    37    1
    21    37    38    1
    22    38    39    1
    23    39    40    1
    24    40    41    1
    25     7     8   ar
    26     8     9   ar
    27     9    10   ar
    28    15    16   ar
    29    16    17   ar
    30    20    21   am
    31    21    23    1
    32    23    24   ar
    33    24    25   ar
    34    25    26   ar
    35    26    27   ar
    36    27    28    1
    37    27    29   ar
    38    29    30    1
    39    17    13   ar
    40    29    23   ar
    41    10     1   ar
    42    10     5   ar
    43    39    35    1
    44    11    12    1
    45    41    42    1
    46    21    22    1
@<TRIPOS>MOLECULE
*****
 42 46 0 0 0
SMALL
GASTEIGER

@<TRIPOS>ATOM
      1 C         138.5748  139.4267  161.5310 C.ar    1  UNL1        0.1539
      2 N         137.9708  140.6540  160.9154 N.ar    1  UNL1       -0.1328
      3 N         137.3635  141.7104  161.7900 N.ar    1  UNL1       -0.1452
      4 C         137.3600  141.5396  163.2803 C.ar    1  UNL1        0.1223
      5 C         137.9639  140.3123  163.8959 C.ar    1  UNL1        0.0267
      6 C         137.9605  140.1415  165.3861 C.ar    1  UNL1        0.0386
      7 C         138.5644  138.9142  166.0018 C.ar    1  UNL1        0.1386
      8 C         139.1719  137.8577  165.1271 C.ar    1  UNL1        0.0370
      9 C         139.1753  138.0285  163.6369 C.ar    1  UNL1        0.0060
     10 C         138.5713  139.2559  163.0213 C.ar    1  UNL1        0.0352
     11 N         139.1822  138.3702  160.6564 N.pl3   1  UNL1       -0.2941
     12 H         138.7159  137.5134  160.5234 H       1  UNL1        0.1537
     13 N         142.7313  139.4514  159.5160 N.ar    1  UNL1       -0.2387
     14 C         141.6036  139.4920  160.5043 C.ar    1  UNL1        0.1118
     15 C         140.5000  138.6192  159.9846 C.ar    1  UNL1        0.0896
     16 C         140.9455  138.0391  158.6750 C.ar    1  UNL1        0.1363
     17 N         142.3245  138.5534  158.3854 N.ar    1  UNL1       -0.1658
     18 C         144.0365  140.1806  159.6370 C.3     1  UNL1        0.2122
     19 O         144.7896  142.6506  159.9228 O.2     1  UNL1       -0.2726
     20 C         144.1269  141.4226  160.4731 C.2     1  UNL1        0.2510
     21 N         143.5547  141.4366  161.8596 N.am    1  UNL1       -0.2805
     22 H         143.1197  140.6306  162.2208 H       1  UNL1        0.1550
     23 C         143.6451  142.6787  162.6958 C.ar    1  UNL1        0.0804
     24 C         142.9584  143.9352  162.2490 C.ar    1  UNL1        0.0171
     25 C         143.0489  145.1772  163.0852 C.ar    1  UNL1        0.0037
     26 C         143.8260  145.1628  164.3681 C.ar    1  UNL1        0.0321
     27 C         144.5127  143.9062  164.8149 C.ar    1  UNL1        0.1686
     28 F         145.2898  143.8916  166.0978 F       1  UNL1       -0.2018
     29 C         144.4223  142.6641  163.9787 C.ar    1  UNL1        0.1807
     30 F         145.1090  141.4076  164.4255 F       1  UNL1       -0.2005
     31 O         138.5610  138.7434  167.4920 O.3     1  UNL1       -0.4754
     32 C         138.9961  139.8733  168.3774 C.3     1  UNL1        0.2068
     33 C         140.4045  139.9239  168.8913 C.3     1  UNL1        0.0646
     34 C         141.3719  140.9238  168.3307 C.3     1  UNL1        0.0760
     35 N         141.0484  141.6482  167.0576 N.3     1  UNL1       -0.2716
     36 C         140.3074  142.9477  166.9464 C.3     1  UNL1        0.0722
     37 C         140.2101  143.3029  165.4924 C.3     1  UNL1        0.0188
     38 C         140.8910  142.2229  164.7048 C.3     1  UNL1        0.0199
     39 C         141.4090  141.2002  165.6722 C.3     1  UNL1        0.0870
     40 C         142.1565  139.9493  165.3166 C.3     1  UNL1        0.1530
     41 O         142.4223  139.6176  163.8781 O.3     1  UNL1       -0.3806
     42 H         141.5824  139.4385  163.4271 H       1  UNL1        0.2105
@<TRIPOS>BOND
     1    19    20    2
     2    20    18    1
     3    18    13    1
     4    13    14   ar
     5    14    15   ar
     6    15    11    1
     7    11     1    1
     8     1     2   ar
     9     2     3   ar
    10     3     4   ar
    11     4     5   ar
    12     5     6   ar
    13     6     7   ar
    14     7    31    1
    15    31    32    1
    16    32    33    1
    17    33    34    1
    18    34    35    1
    19    35    36    1
    20    36    37    1
    21    37    38    1
    22    38    39    1
    23    39    40    1
    24    40    41    1
    25     7     8   ar
    26     8     9   ar
    27     9    10   ar
    28    15    16   ar
    29    16    17   ar
    30    20    21   am
    31    21    23    1
    32    23    24   ar
    33    24    25   ar
    34    25    26   ar
    35    26    27   ar
    36    27    28    1
    37    27    29   ar
    38    29    30    1
    39    17    13   ar
    40    29    23   ar
    41    10     1   ar
    42    10     5   ar
    43    39    35    1
    44    11    12    1
    45    41    42    1
    46    21    22    1
@<TRIPOS>MOLECULE
*****
 42 46 0 0 0
SMALL
GASTEIGER

@<TRIPOS>ATOM
      1 C         142.0750  144.6993  162.8659 C.ar    1  UNL1        0.1539
      2 N         143.5090  144.6711  162.4271 N.ar    1  UNL1       -0.1328
      3 N         144.5191  143.8905  163.2146 N.ar    1  UNL1       -0.1452
      4 C         144.0951  143.1380  164.4410 C.ar    1  UNL1        0.1223
      5 C         142.6611  143.1662  164.8798 C.ar    1  UNL1        0.0267
      6 C         142.2371  142.4137  166.1062 C.ar    1  UNL1        0.0386
      7 C         140.8030  142.4418  166.5450 C.ar    1  UNL1        0.1386
      8 C         139.7928  143.2225  165.7574 C.ar    1  UNL1        0.0370
      9 C         140.2168  143.9750  164.5310 C.ar    1  UNL1        0.0060
     10 C         141.6510  143.9468  164.0922 C.ar    1  UNL1        0.0352
     11 N         141.0648  145.4799  162.0783 N.pl3   1  UNL1       -0.2941
     12 H         140.8057  146.3841  162.3692 H       1  UNL1        0.1537
     13 N         139.8558  144.4726  158.5301 N.ar    1  UNL1       -0.2387
     14 C         140.6595  145.3546  159.4391 C.ar    1  UNL1        0.1118
     15 C         140.4494  144.8829  160.8475 C.ar    1  UNL1        0.0896
     16 C         139.5158  143.7095  160.8088 C.ar    1  UNL1        0.1363
     17 N         139.1490  143.4559  159.3767 N.ar    1  UNL1       -0.1658
     18 C         139.7734  144.5873  157.0368 C.3     1  UNL1        0.2122
     19 O         141.4325  146.3947  156.1820 O.2     1  UNL1       -0.2726
     20 C         140.0265  145.9073  156.3709 C.2     1  UNL1        0.2510
     21 N         138.8736  146.7399  155.8938 N.am    1  UNL1       -0.2805
     22 H         137.9509  146.4200  156.0177 H       1  UNL1        0.1550
     23 C         139.1267  148.0599  155.2278 C.ar    1  UNL1        0.0804
     24 C         139.8089  148.1079  153.8928 C.ar    1  UNL1        0.0171
     25 C         140.0620  149.4279  153.2269 C.ar    1  UNL1        0.0037
     26 C         139.6329  150.7000  153.8959 C.ar    1  UNL1        0.0321
     27 C         138.9506  150.6521  155.2310 C.ar    1  UNL1        0.1686
     28 F         138.5214  151.9241  155.9000 F       1  UNL1       -0.2018
     29 C         138.6975  149.3320  155.8969 C.ar    1  UNL1        0.1807
     30 F         138.0153  149.2841  157.2319 F       1  UNL1       -0.2005
     31 O         140.3790  141.6894  167.7714 O.3     1  UNL1       -0.4754
     32 C         140.1995  140.2013  167.7136 C.3     1  UNL1        0.2068
     33 C         138.9714  139.6181  167.0799 C.3     1  UNL1        0.0646
     34 C         139.0804  138.8628  165.7885 C.3     1  UNL1        0.0760
     35 N         139.7743  139.4840  164.6126 N.3     1  UNL1       -0.2716
     36 C         141.2380  139.3860  164.2998 C.3     1  UNL1        0.0722
     37 C         141.4946  140.1537  163.0369 C.3     1  UNL1        0.0188
     38 C         140.1894  140.7261  162.5692 C.3     1  UNL1        0.0199
     39 C         139.1261  140.3123  163.5430 C.3     1  UNL1        0.0870
     40 C         137.6705  140.6647  163.4615 C.3     1  UNL1        0.1530
     41 O         137.2354  141.8856  162.7064 O.3     1  UNL1       -0.3806
     42 H         137.5695  142.6787  163.1539 H       1  UNL1        0.2105
@<TRIPOS>BOND
     1    19    20    2
     2    20    18    1
     3    18    13    1
     4    13    14   ar
     5    14    15   ar
     6    15    11    1
     7    11     1    1
     8     1     2   ar
     9     2     3   ar
    10     3     4   ar
    11     4     5   ar
    12     5     6   ar
    13     6     7   ar
    14     7    31    1
    15    31    32    1
    16    32    33    1
    17    33    34    1
    18    34    35    1
    19    35    36    1
    20    36    37    1
    21    37    38    1
    22    38    39    1
    23    39    40    1
    24    40    41    1
    25     7     8   ar
    26     8     9   ar
    27     9    10   ar
    28    15    16   ar
    29    16    17   ar
    30    20    21   am
    31    21    23    1
    32    23    24   ar
    33    24    25   ar
    34    25    26   ar
    35    26    27   ar
    36    27    28    1
    37    27    29   ar
    38    29    30    1
    39    17    13   ar
    40    29    23   ar
    41    10     1   ar
    42    10     5   ar
    43    39    35    1
    44    11    12    1
    45    41    42    1
    46    21    22    1
@<TRIPOS>MOLECULE
*****
 42 46 0 0 0
SMALL
GASTEIGER

@<TRIPOS>ATOM
      1 C         140.7064  138.8168  160.3510 C.ar    1  UNL1        0.1539
      2 N         141.9612  138.2013  159.8063 N.ar    1  UNL1       -0.1328
      3 N         142.9573  139.0516  159.0751 N.ar    1  UNL1       -0.1452
      4 C         142.6987  140.5173  158.8887 C.ar    1  UNL1        0.1223
      5 C         141.4440  141.1328  159.4334 C.ar    1  UNL1        0.0267
      6 C         141.1854  142.5985  159.2470 C.ar    1  UNL1        0.0386
      7 C         139.9306  143.2140  159.7917 C.ar    1  UNL1        0.1386
      8 C         138.9344  142.3637  160.5229 C.ar    1  UNL1        0.0370
      9 C         139.1930  140.8979  160.7093 C.ar    1  UNL1        0.0060
     10 C         140.4478  140.2825  160.1646 C.ar    1  UNL1        0.0352
     11 N         139.7102  137.9665  161.0822 N.pl3   1  UNL1       -0.2941
     12 H         139.0433  137.4461  160.5784 H       1  UNL1        0.1537
     13 N         139.1049  138.1842  164.9100 N.ar    1  UNL1       -0.2387
     14 C         138.6809  138.4635  163.4985 C.ar    1  UNL1        0.1118
     15 C         139.7300  137.9090  162.5810 C.ar    1  UNL1        0.0896
     16 C         140.8024  137.2871  163.4254 C.ar    1  UNL1        0.1363
     17 N         140.4161  137.4571  164.8648 N.ar    1  UNL1       -0.1658
     18 C         138.3502  138.5651  166.1491 C.3     1  UNL1        0.2122
     19 O         138.4576  139.4421  168.5922 O.2     1  UNL1       -0.2726
     20 C         139.0081  139.4126  167.1972 C.2     1  UNL1        0.2510
     21 N         140.2166  140.2308  166.8503 N.am    1  UNL1       -0.2805
     22 H         140.5779  140.2114  165.9347 H       1  UNL1        0.1550
     23 C         140.8745  141.0784  167.8985 C.ar    1  UNL1        0.0804
     24 C         140.3187  142.4326  168.2256 C.ar    1  UNL1        0.0171
     25 C         140.9767  143.2802  169.2738 C.ar    1  UNL1        0.0037
     26 C         142.1905  142.7736  169.9948 C.ar    1  UNL1        0.0321
     27 C         142.7464  141.4193  169.6677 C.ar    1  UNL1        0.1686
     28 F         143.9602  140.9126  170.3887 F       1  UNL1       -0.2018
     29 C         142.0885  140.5717  168.6195 C.ar    1  UNL1        0.1807
     30 F         142.6443  139.2174  168.2924 F       1  UNL1       -0.2005
     31 O         139.6720  144.6797  159.6052 O.3     1  UNL1       -0.4754
     32 C         140.3577  145.6804  160.4875 C.3     1  UNL1        0.2068
     33 C         139.6895  146.1548  161.7439 C.3     1  UNL1        0.0646
     34 C         139.5615  145.2321  162.9195 C.3     1  UNL1        0.0760
     35 N         140.7852  144.5994  163.5132 N.3     1  UNL1       -0.2716
     36 C         142.1223  145.2570  163.6856 C.3     1  UNL1        0.0722
     37 C         143.0501  144.2621  164.3176 C.3     1  UNL1        0.0188
     38 C         142.2864  142.9896  164.5357 C.3     1  UNL1        0.0199
     39 C         140.8865  143.1981  164.0386 C.3     1  UNL1        0.0870
     40 C         139.7821  142.1834  164.0626 C.3     1  UNL1        0.1530
     41 O         138.6920  142.2854  165.0879 O.3     1  UNL1       -0.3806
     42 H         139.0648  142.1404  165.9716 H       1  UNL1        0.2105
@<TRIPOS>BOND
     1    19    20    2
     2    20    18    1
     3    18    13    1
     4    13    14   ar
     5    14    15   ar
     6    15    11    1
     7    11     1    1
     8     1     2   ar
     9     2     3   ar
    10     3     4   ar
    11     4     5   ar
    12     5     6   ar
    13     6     7   ar
    14     7    31    1
    15    31    32    1
    16    32    33    1
    17    33    34    1
    18    34    35    1
    19    35    36    1
    20    36    37    1
    21    37    38    1
    22    38    39    1
    23    39    40    1
    24    40    41    1
    25     7     8   ar
    26     8     9   ar
    27     9    10   ar
    28    15    16   ar
    29    16    17   ar
    30    20    21   am
    31    21    23    1
    32    23    24   ar
    33    24    25   ar
    34    25    26   ar
    35    26    27   ar
    36    27    28    1
    37    27    29   ar
    38    29    30    1
    39    17    13   ar
    40    29    23   ar
    41    10     1   ar
    42    10     5   ar
    43    39    35    1
    44    11    12    1
    45    41    42    1
    46    21    22    1
