@<TRIPOS>MOLECULE
*****
 27 30 0 0 0
SMALL
GASTEIGER

@<TRIPOS>ATOM
      1 C         137.9034  144.7681  164.8429 C.3     1  UNL1        0.0523
      2 C         138.9750  144.6496  163.8000 C.ar    1  UNL1        0.0653
      3 C         140.2666  143.9602  164.1267 C.ar    1  UNL1        0.0490
      4 C         141.3381  143.8417  163.0838 C.ar    1  UNL1        0.1342
      5 N         141.1181  144.4126  161.7141 N.ar    1  UNL1       -0.1816
      6 N         141.9849  144.4480  160.4905 N.ar    1  UNL1       -0.1409
      7 C         141.2290  145.1592  159.4075 C.ar    1  UNL1        0.2227
      8 N         139.8951  145.5634  159.9619 N.ar    1  UNL1       -0.1880
      9 C         139.8266  145.1020  161.3875 C.ar    1  UNL1        0.2552
     10 N         138.7550  145.2205  162.4305 N.ar    1  UNL1       -0.2142
     11 C         141.7207  145.4204  158.0146 C.3     1  UNL1        0.3163
     12 C         142.2123  145.6816  156.6218 C.3     1  UNL1        0.0805
     13 F         142.8624  144.4741  158.2402 F       1  UNL1       -0.1962
     14 F         140.5789  146.3667  157.7890 F       1  UNL1       -0.1962
     15 N         142.6296  143.1524  163.4104 N.pl3   1  UNL1       -0.3192
     16 H         143.4481  143.3788  162.9123 H       1  UNL1        0.1482
     17 C         142.6741  142.1180  164.4958 C.3     1  UNL1        0.0750
     18 C         142.6707  140.6601  164.1432 C.3     1  UNL1        0.0245
     19 C         142.7152  139.6258  165.2286 C.3     1  UNL1        0.0278
     20 C         142.7631  140.0495  166.6668 C.ar    1  UNL1       -0.0255
     21 C         142.8076  139.0151  167.7522 C.ar    1  UNL1        0.0021
     22 C         142.8555  139.4388  169.1904 C.ar    1  UNL1        0.0342
     23 BR        142.9000  138.4045  170.2758 Br      1  UNL1       -0.0490
     24 C         142.8590  140.8968  169.5430 C.ar    1  UNL1        0.0064
     25 C         142.8145  141.9310  168.4576 C.ar    1  UNL1       -0.0040
     26 C         142.7666  141.5074  167.0194 C.ar    1  UNL1       -0.0245
     27 C         142.7221  142.5416  165.9340 C.3     1  UNL1        0.0455
@<TRIPOS>BOND
     1     1     2    1
     2     2     3   ar
     3     3     4   ar
     4     4    15    1
     5    15    17    1
     6    17    18    1
     7    18    19    1
     8    19    20    1
     9    20    21   ar
    10    21    22   ar
    11    22    23    1
    12    22    24   ar
    13    24    25   ar
    14    25    26   ar
    15    26    27    1
    16     4     5   ar
    17     5     6   ar
    18     6     7   ar
    19     7    11    1
    20    11    12    1
    21    11    13    1
    22    11    14    1
    23     7     8   ar
    24     8     9   ar
    25     9    10   ar
    26    10     2   ar
    27    27    17    1
    28     9     5   ar
    29    26    20   ar
    30    15    16    1
@<TRIPOS>MOLECULE
*****
 27 30 0 0 0
SMALL
GASTEIGER

@<TRIPOS>ATOM
      1 C         141.2681  138.3719  158.8018 C.3     1  UNL1        0.0523
      2 C         141.1366  138.3954  160.2959 C.ar    1  UNL1        0.0653
      3 C         142.3487  138.6145  161.1521 C.ar    1  UNL1        0.0490
      4 C         142.2172  138.6380  162.6461 C.ar    1  UNL1        0.1342
      5 N         140.8736  138.4425  163.2839 N.ar    1  UNL1       -0.1816
      6 N         140.4383  138.4158  164.7191 N.ar    1  UNL1       -0.1409
      7 C         138.9572  138.1802  164.7499 C.ar    1  UNL1        0.2227
      8 N         138.4773  138.0614  163.3337 N.ar    1  UNL1       -0.1880
      9 C         139.6617  138.2235  162.4277 C.ar    1  UNL1        0.2552
     10 N         139.7932  138.1999  160.9337 N.ar    1  UNL1       -0.2142
     11 C         138.1056  138.0809  165.9808 C.3     1  UNL1        0.3163
     12 C         137.2541  137.9816  167.2116 C.3     1  UNL1        0.0805
     13 F         138.0535  139.5776  166.0655 F       1  UNL1       -0.1962
     14 F         138.1578  136.5843  165.8961 F       1  UNL1       -0.1962
     15 N         143.4291  138.8571  163.5023 N.pl3   1  UNL1       -0.3192
     16 H         144.2725  138.3964  163.2887 H       1  UNL1        0.1482
     17 C         143.3560  139.7780  164.6841 C.3     1  UNL1        0.0750
     18 C         143.5817  141.2498  164.5031 C.3     1  UNL1        0.0245
     19 C         143.5086  142.1707  165.6848 C.3     1  UNL1        0.0278
     20 C         143.2099  141.6198  167.0476 C.ar    1  UNL1       -0.0255
     21 C         143.1368  142.5408  168.2294 C.ar    1  UNL1        0.0021
     22 C         142.8381  141.9899  169.5922 C.ar    1  UNL1        0.0342
     23 BR        142.7650  142.9107  170.7740 Br      1  UNL1       -0.0490
     24 C         142.6124  140.5180  169.7732 C.ar    1  UNL1        0.0064
     25 C         142.6855  139.5971  168.5915 C.ar    1  UNL1       -0.0040
     26 C         142.9842  140.1480  167.2287 C.ar    1  UNL1       -0.0245
     27 C         143.0573  139.2271  166.0469 C.3     1  UNL1        0.0455
@<TRIPOS>BOND
     1     1     2    1
     2     2     3   ar
     3     3     4   ar
     4     4    15    1
     5    15    17    1
     6    17    18    1
     7    18    19    1
     8    19    20    1
     9    20    21   ar
    10    21    22   ar
    11    22    23    1
    12    22    24   ar
    13    24    25   ar
    14    25    26   ar
    15    26    27    1
    16     4     5   ar
    17     5     6   ar
    18     6     7   ar
    19     7    11    1
    20    11    12    1
    21    11    13    1
    22    11    14    1
    23     7     8   ar
    24     8     9   ar
    25     9    10   ar
    26    10     2   ar
    27    27    17    1
    28     9     5   ar
    29    26    20   ar
    30    15    16    1
@<TRIPOS>MOLECULE
*****
 27 30 0 0 0
SMALL
GASTEIGER

@<TRIPOS>ATOM
      1 C         139.6671  140.4127  170.5742 C.3     1  UNL1        0.0523
      2 C         139.7609  140.4375  169.0774 C.ar    1  UNL1        0.0653
      3 C         140.7041  141.3876  168.4006 C.ar    1  UNL1        0.0490
      4 C         140.7979  141.4124  166.9038 C.ar    1  UNL1        0.1342
      5 N         139.9485  140.4871  166.0836 N.ar    1  UNL1       -0.1816
      6 N         139.8251  140.2863  164.6023 N.ar    1  UNL1       -0.1409
      7 C         138.8057  139.2121  164.3635 C.ar    1  UNL1        0.2227
      8 N         138.2991  138.7491  165.6973 N.ar    1  UNL1       -0.1880
      9 C         139.0054  139.5371  166.7604 C.ar    1  UNL1        0.2552
     10 N         138.9116  139.5123  168.2573 N.ar    1  UNL1       -0.2142
     11 C         138.3695  138.6922  163.0258 C.3     1  UNL1        0.3163
     12 C         137.9332  138.1724  161.6881 C.3     1  UNL1        0.0805
     13 F         139.0515  137.3870  163.3106 F       1  UNL1       -0.1962
     14 F         137.6874  139.9975  162.7410 F       1  UNL1       -0.1962
     15 N         141.7409  142.3623  166.2270 N.pl3   1  UNL1       -0.3192
     16 H         142.6307  142.5314  166.6131 H       1  UNL1        0.1482
     17 C         141.3285  143.0548  164.9619 C.3     1  UNL1        0.0750
     18 C         140.1441  143.9752  164.9625 C.3     1  UNL1        0.0245
     19 C         139.7317  144.6676  163.6975 C.3     1  UNL1        0.0278
     20 C         140.5037  144.4397  162.4318 C.ar    1  UNL1       -0.0255
     21 C         140.0912  145.1322  161.1667 C.ar    1  UNL1        0.0021
     22 C         140.8633  144.9043  159.9010 C.ar    1  UNL1        0.0342
     23 BR        140.4509  145.5967  158.6359 Br      1  UNL1       -0.0490
     24 C         142.0478  143.9839  159.9004 C.ar    1  UNL1        0.0064
     25 C         142.4602  143.2914  161.1654 C.ar    1  UNL1       -0.0040
     26 C         141.6881  143.5194  162.4311 C.ar    1  UNL1       -0.0245
     27 C         142.1005  142.8269  163.6962 C.3     1  UNL1        0.0455
@<TRIPOS>BOND
     1     1     2    1
     2     2     3   ar
     3     3     4   ar
     4     4    15    1
     5    15    17    1
     6    17    18    1
     7    18    19    1
     8    19    20    1
     9    20    21   ar
    10    21    22   ar
    11    22    23    1
    12    22    24   ar
    13    24    25   ar
    14    25    26   ar
    15    26    27    1
    16     4     5   ar
    17     5     6   ar
    18     6     7   ar
    19     7    11    1
    20    11    12    1
    21    11    13    1
    22    11    14    1
    23     7     8   ar
    24     8     9   ar
    25     9    10   ar
    26    10     2   ar
    27    27    17    1
    28     9     5   ar
    29    26    20   ar
    30    15    16    1
@<TRIPOS>MOLECULE
*****
 27 30 0 0 0
SMALL
GASTEIGER

@<TRIPOS>ATOM
      1 C         142.5883  137.6863  157.6538 C.3     1  UNL1        0.0523
      2 C         142.7358  138.4593  158.9308 C.ar    1  UNL1        0.0653
      3 C         142.7386  137.7398  160.2470 C.ar    1  UNL1        0.0490
      4 C         142.8862  138.5127  161.5240 C.ar    1  UNL1        0.1342
      5 N         143.0309  140.0053  161.4848 N.ar    1  UNL1       -0.1816
      6 N         143.1922  141.0268  162.5712 N.ar    1  UNL1       -0.1409
      7 C         143.2892  142.3777  161.9264 C.ar    1  UNL1        0.2227
      8 N         143.1877  142.1910  160.4416 N.ar    1  UNL1       -0.1880
      9 C         143.0281  140.7248  160.1686 C.ar    1  UNL1        0.2552
     10 N         142.8806  139.9518  158.8916 N.ar    1  UNL1       -0.2142
     11 C         143.4579  143.6857  162.6412 C.3     1  UNL1        0.3163
     12 C         143.6267  144.9937  163.3558 C.3     1  UNL1        0.0805
     13 F         142.0415  143.6026  163.1278 F       1  UNL1       -0.1962
     14 F         144.8743  143.7689  162.1545 F       1  UNL1       -0.1962
     15 N         142.8890  137.7933  162.8401 N.pl3   1  UNL1       -0.3192
     16 H         143.4398  136.9860  162.9586 H       1  UNL1        0.1482
     17 C         142.0524  138.3038  163.9758 C.3     1  UNL1        0.0750
     18 C         140.5706  138.4614  163.8041 C.3     1  UNL1        0.0245
     19 C         139.7342  138.9719  164.9397 C.3     1  UNL1        0.0278
     20 C         140.3795  139.3248  166.2470 C.ar    1  UNL1       -0.0255
     21 C         139.5429  139.8354  167.3826 C.ar    1  UNL1        0.0021
     22 C         140.1882  140.1883  168.6899 C.ar    1  UNL1        0.0342
     23 BR        139.3518  140.6988  169.8255 Br      1  UNL1       -0.0490
     24 C         141.6701  140.0307  168.8616 C.ar    1  UNL1        0.0064
     25 C         142.5065  139.5202  167.7260 C.ar    1  UNL1       -0.0040
     26 C         141.8612  139.1673  166.4187 C.ar    1  UNL1       -0.0245
     27 C         142.6977  138.6568  165.2831 C.3     1  UNL1        0.0455
@<TRIPOS>BOND
     1     1     2    1
     2     2     3   ar
     3     3     4   ar
     4     4    15    1
     5    15    17    1
     6    17    18    1
     7    18    19    1
     8    19    20    1
     9    20    21   ar
    10    21    22   ar
    11    22    23    1
    12    22    24   ar
    13    24    25   ar
    14    25    26   ar
    15    26    27    1
    16     4     5   ar
    17     5     6   ar
    18     6     7   ar
    19     7    11    1
    20    11    12    1
    21    11    13    1
    22    11    14    1
    23     7     8   ar
    24     8     9   ar
    25     9    10   ar
    26    10     2   ar
    27    27    17    1
    28     9     5   ar
    29    26    20   ar
    30    15    16    1
@<TRIPOS>MOLECULE
*****
 27 30 0 0 0
SMALL
GASTEIGER

@<TRIPOS>ATOM
      1 C         138.4817  140.2704  157.8653 C.3     1  UNL1        0.0523
      2 C         138.5436  140.5689  159.3340 C.ar    1  UNL1        0.0653
      3 C         138.7514  139.4555  160.3175 C.ar    1  UNL1        0.0490
      4 C         138.8133  139.7540  161.7862 C.ar    1  UNL1        0.1342
      5 N         138.6674  141.1659  162.2714 N.ar    1  UNL1       -0.1816
      6 N         138.6855  141.7609  163.6482 N.ar    1  UNL1       -0.1409
      7 C         138.4888  143.2420  163.5156 C.ar    1  UNL1        0.2227
      8 N         138.3492  143.5623  162.0569 N.ar    1  UNL1       -0.1880
      9 C         138.4595  142.2792  161.2879 C.ar    1  UNL1        0.2552
     10 N         138.3976  141.9807  159.8192 N.ar    1  UNL1       -0.2142
     11 C         138.4403  144.2295  164.6437 C.3     1  UNL1        0.3163
     12 C         138.3917  145.2169  165.7718 C.3     1  UNL1        0.0805
     13 F         139.8326  144.6777  164.3114 F       1  UNL1       -0.1962
     14 F         137.0479  143.7814  164.9761 F       1  UNL1       -0.1962
     15 N         139.0212  138.6407  162.7697 N.pl3   1  UNL1       -0.3192
     16 H         138.5957  137.7656  162.6198 H       1  UNL1        0.1482
     17 C         139.8772  138.8606  163.9817 C.3     1  UNL1        0.0750
     18 C         141.3661  138.7054  163.8866 C.3     1  UNL1        0.0245
     19 C         142.2220  138.9254  165.0985 C.3     1  UNL1        0.0278
     20 C         141.5891  139.3006  166.4057 C.ar    1  UNL1       -0.0255
     21 C         142.4451  139.5206  167.6177 C.ar    1  UNL1        0.0021
     22 C         141.8122  139.8957  168.9248 C.ar    1  UNL1        0.0342
     23 BR        142.6682  140.1157  170.1368 Br      1  UNL1       -0.0490
     24 C         140.3233  140.0509  169.0200 C.ar    1  UNL1        0.0064
     25 C         139.4673  139.8310  167.8080 C.ar    1  UNL1       -0.0040
     26 C         140.1002  139.4558  166.5009 C.ar    1  UNL1       -0.0245
     27 C         139.2443  139.2358  165.2889 C.3     1  UNL1        0.0455
@<TRIPOS>BOND
     1     1     2    1
     2     2     3   ar
     3     3     4   ar
     4     4    15    1
     5    15    17    1
     6    17    18    1
     7    18    19    1
     8    19    20    1
     9    20    21   ar
    10    21    22   ar
    11    22    23    1
    12    22    24   ar
    13    24    25   ar
    14    25    26   ar
    15    26    27    1
    16     4     5   ar
    17     5     6   ar
    18     6     7   ar
    19     7    11    1
    20    11    12    1
    21    11    13    1
    22    11    14    1
    23     7     8   ar
    24     8     9   ar
    25     9    10   ar
    26    10     2   ar
    27    27    17    1
    28     9     5   ar
    29    26    20   ar
    30    15    16    1
@<TRIPOS>MOLECULE
*****
 27 30 0 0 0
SMALL
GASTEIGER

@<TRIPOS>ATOM
      1 C         144.4940  142.8397  160.9743 C.3     1  UNL1        0.0523
      2 C         144.0592  141.4357  160.6746 C.ar    1  UNL1        0.0653
      3 C         143.7747  140.4828  161.7976 C.ar    1  UNL1        0.0490
      4 C         143.3400  139.0788  161.4978 C.ar    1  UNL1        0.1342
      5 N         143.1898  138.6277  160.0751 N.ar    1  UNL1       -0.1816
      6 N         142.7807  137.3147  159.4764 N.ar    1  UNL1       -0.1409
      7 C         142.8124  137.4561  157.9834 C.ar    1  UNL1        0.2227
      8 N         143.2410  138.8565  157.6595 N.ar    1  UNL1       -0.1880
      9 C         143.4743  139.5806  158.9522 C.ar    1  UNL1        0.2552
     10 N         143.9090  140.9846  159.2520 N.ar    1  UNL1       -0.2142
     11 C         142.4746  136.3850  156.9890 C.3     1  UNL1        0.3163
     12 C         142.1369  135.3141  155.9946 C.3     1  UNL1        0.0805
     13 F         143.1975  135.3756  157.8306 F       1  UNL1       -0.1962
     14 F         141.7518  137.3945  156.1473 F       1  UNL1       -0.1962
     15 N         143.0554  138.1259  162.6207 N.pl3   1  UNL1       -0.3192
     16 H         143.4286  137.2151  162.5999 H       1  UNL1        0.1482
     17 C         142.2022  138.5606  163.7754 C.3     1  UNL1        0.0750
     18 C         140.7310  138.7783  163.5806 C.3     1  UNL1        0.0245
     19 C         139.8778  139.2130  164.7352 C.3     1  UNL1        0.0278
     20 C         140.4960  139.4300  166.0846 C.ar    1  UNL1       -0.0255
     21 C         139.6427  139.8648  167.2392 C.ar    1  UNL1        0.0021
     22 C         140.2609  140.0818  168.5886 C.ar    1  UNL1        0.0342
     23 BR        139.4077  140.5166  169.7432 Br      1  UNL1       -0.0490
     24 C         141.7322  139.8641  168.7833 C.ar    1  UNL1        0.0064
     25 C         142.5853  139.4294  167.6287 C.ar    1  UNL1       -0.0040
     26 C         141.9672  139.2124  166.2793 C.ar    1  UNL1       -0.0245
     27 C         142.8203  138.7777  165.1247 C.3     1  UNL1        0.0455
@<TRIPOS>BOND
     1     1     2    1
     2     2     3   ar
     3     3     4   ar
     4     4    15    1
     5    15    17    1
     6    17    18    1
     7    18    19    1
     8    19    20    1
     9    20    21   ar
    10    21    22   ar
    11    22    23    1
    12    22    24   ar
    13    24    25   ar
    14    25    26   ar
    15    26    27    1
    16     4     5   ar
    17     5     6   ar
    18     6     7   ar
    19     7    11    1
    20    11    12    1
    21    11    13    1
    22    11    14    1
    23     7     8   ar
    24     8     9   ar
    25     9    10   ar
    26    10     2   ar
    27    27    17    1
    28     9     5   ar
    29    26    20   ar
    30    15    16    1
@<TRIPOS>MOLECULE
*****
 27 30 0 0 0
SMALL
GASTEIGER

@<TRIPOS>ATOM
      1 C         142.5454  137.6300  160.4137 C.3     1  UNL1        0.0523
      2 C         141.7317  138.7714  160.9477 C.ar    1  UNL1        0.0653
      3 C         140.6227  138.5100  161.9234 C.ar    1  UNL1        0.0490
      4 C         139.8091  139.6514  162.4575 C.ar    1  UNL1        0.1342
      5 N         140.1044  141.0542  162.0158 N.ar    1  UNL1       -0.1816
      6 N         139.4771  142.3704  162.3680 N.ar    1  UNL1       -0.1409
      7 C         140.1984  143.4453  161.6100 C.ar    1  UNL1        0.2227
      8 N         141.2714  142.7933  160.7894 N.ar    1  UNL1       -0.1880
      9 C         141.2134  141.3156  161.0401 C.ar    1  UNL1        0.2552
     10 N         142.0270  140.1742  160.5061 N.ar    1  UNL1       -0.2142
     11 C         139.8991  144.9142  161.6634 C.3     1  UNL1        0.3163
     12 C         139.5998  146.3830  161.7167 C.3     1  UNL1        0.0805
     13 F         138.6877  144.6369  162.5034 F       1  UNL1       -0.1962
     14 F         141.1104  145.1915  160.8234 F       1  UNL1       -0.1962
     15 N         138.7002  139.3901  163.4331 N.pl3   1  UNL1       -0.3192
     16 H         137.8320  139.0538  163.1131 H       1  UNL1        0.1482
     17 C         138.9140  139.6411  164.8965 C.3     1  UNL1        0.0750
     18 C         138.1135  138.8817  165.9125 C.3     1  UNL1        0.0245
     19 C         138.3273  139.1327  167.3758 C.3     1  UNL1        0.0278
     20 C         139.3417  140.1431  167.8230 C.ar    1  UNL1       -0.0255
     21 C         139.5555  140.3941  169.2864 C.ar    1  UNL1        0.0021
     22 C         140.5699  141.4046  169.7336 C.ar    1  UNL1        0.0342
     23 BR        140.7837  141.6556  171.1969 Br      1  UNL1       -0.0490
     24 C         141.3705  142.1640  168.7175 C.ar    1  UNL1        0.0064
     25 C         141.1566  141.9130  167.2543 C.ar    1  UNL1       -0.0040
     26 C         140.1422  140.9026  166.8070 C.ar    1  UNL1       -0.0245
     27 C         139.9284  140.6515  165.3437 C.3     1  UNL1        0.0455
@<TRIPOS>BOND
     1     1     2    1
     2     2     3   ar
     3     3     4   ar
     4     4    15    1
     5    15    17    1
     6    17    18    1
     7    18    19    1
     8    19    20    1
     9    20    21   ar
    10    21    22   ar
    11    22    23    1
    12    22    24   ar
    13    24    25   ar
    14    25    26   ar
    15    26    27    1
    16     4     5   ar
    17     5     6   ar
    18     6     7   ar
    19     7    11    1
    20    11    12    1
    21    11    13    1
    22    11    14    1
    23     7     8   ar
    24     8     9   ar
    25     9    10   ar
    26    10     2   ar
    27    27    17    1
    28     9     5   ar
    29    26    20   ar
    30    15    16    1
@<TRIPOS>MOLECULE
*****
 27 30 0 0 0
SMALL
GASTEIGER

@<TRIPOS>ATOM
      1 C         137.6727  144.4437  162.9018 C.3     1  UNL1        0.0523
      2 C         138.0210  143.1083  162.3141 C.ar    1  UNL1        0.0653
      3 C         138.1540  141.9087  163.2048 C.ar    1  UNL1        0.0490
      4 C         138.5023  140.5732  162.6171 C.ar    1  UNL1        0.1342
      5 N         138.7175  140.4375  161.1388 N.ar    1  UNL1       -0.1816
      6 N         139.0680  139.2590  160.2796 N.ar    1  UNL1       -0.1409
      7 C         139.1516  139.7302  158.8580 C.ar    1  UNL1        0.2227
      8 N         138.8528  141.2000  158.8386 N.ar    1  UNL1       -0.1880
      9 C         138.5845  141.6371  160.2482 C.ar    1  UNL1        0.2552
     10 N         138.2362  142.9726  160.8359 N.ar    1  UNL1       -0.2142
     11 C         139.4770  138.8808  157.6652 C.3     1  UNL1        0.3163
     12 C         139.8022  138.0314  156.4725 C.3     1  UNL1        0.0805
     13 F         140.4047  138.0550  158.5063 F       1  UNL1       -0.1962
     14 F         138.5492  139.7066  156.8242 F       1  UNL1       -0.1962
     15 N         138.6354  139.3736  163.5076 N.pl3   1  UNL1       -0.3192
     16 H         138.4439  138.4748  163.1545 H       1  UNL1        0.1482
     17 C         139.0601  139.5434  164.9362 C.3     1  UNL1        0.0750
     18 C         138.0943  139.2500  166.0458 C.3     1  UNL1        0.0245
     19 C         138.5191  139.4198  167.4743 C.3     1  UNL1        0.0278
     20 C         139.9097  139.8831  167.7932 C.ar    1  UNL1       -0.0255
     21 C         140.3344  140.0529  169.2218 C.ar    1  UNL1        0.0021
     22 C         141.7250  140.5161  169.5408 C.ar    1  UNL1        0.0342
     23 BR        142.1498  140.6860  170.9693 Br      1  UNL1       -0.0490
     24 C         142.6908  140.8096  168.4312 C.ar    1  UNL1        0.0064
     25 C         142.2660  140.6398  167.0027 C.ar    1  UNL1       -0.0040
     26 C         140.8754  140.1765  166.6837 C.ar    1  UNL1       -0.0245
     27 C         140.4507  140.0067  165.2552 C.3     1  UNL1        0.0455
@<TRIPOS>BOND
     1     1     2    1
     2     2     3   ar
     3     3     4   ar
     4     4    15    1
     5    15    17    1
     6    17    18    1
     7    18    19    1
     8    19    20    1
     9    20    21   ar
    10    21    22   ar
    11    22    23    1
    12    22    24   ar
    13    24    25   ar
    14    25    26   ar
    15    26    27    1
    16     4     5   ar
    17     5     6   ar
    18     6     7   ar
    19     7    11    1
    20    11    12    1
    21    11    13    1
    22    11    14    1
    23     7     8   ar
    24     8     9   ar
    25     9    10   ar
    26    10     2   ar
    27    27    17    1
    28     9     5   ar
    29    26    20   ar
    30    15    16    1
@<TRIPOS>MOLECULE
*****
 27 30 0 0 0
SMALL
GASTEIGER

@<TRIPOS>ATOM
      1 C         141.2166  140.1927  158.8774 C.3     1  UNL1        0.0523
      2 C         141.0794  141.6825  158.7683 C.ar    1  UNL1        0.0653
      3 C         141.6139  142.5665  159.8560 C.ar    1  UNL1        0.0490
      4 C         141.4767  144.0562  159.7469 C.ar    1  UNL1        0.1342
      5 N         140.8050  144.6619  158.5502 N.ar    1  UNL1       -0.1816
      6 N         140.5260  146.0856  158.1693 N.ar    1  UNL1       -0.1409
      7 C         139.8191  146.0815  156.8463 C.ar    1  UNL1        0.2227
      8 N         139.6612  144.6553  156.4096 N.ar    1  UNL1       -0.1880
      9 C         140.2705  143.7779  157.4626 C.ar    1  UNL1        0.2552
     10 N         140.4078  142.2881  157.5717 N.ar    1  UNL1       -0.2142
     11 C         139.3521  147.2914  156.0925 C.3     1  UNL1        0.3163
     12 C         138.8851  148.5011  155.3386 C.3     1  UNL1        0.0805
     13 F         138.9230  147.9286  157.3808 F       1  UNL1       -0.1962
     14 F         139.7812  146.6542  154.8042 F       1  UNL1       -0.1962
     15 N         142.0111  144.9402  160.8344 N.pl3   1  UNL1       -0.3192
     16 H         142.1233  145.9051  160.6740 H       1  UNL1        0.1482
     17 C         142.3747  144.3542  162.1666 C.3     1  UNL1        0.0750
     18 C         143.8123  144.0873  162.5013 C.3     1  UNL1        0.0245
     19 C         144.1759  143.5013  163.8333 C.3     1  UNL1        0.0278
     20 C         143.1018  143.1823  164.8307 C.ar    1  UNL1       -0.0255
     21 C         143.4655  142.5963  166.1628 C.ar    1  UNL1        0.0021
     22 C         142.3914  142.2773  167.1601 C.ar    1  UNL1        0.0342
     23 BR        142.7550  141.6913  168.4922 Br      1  UNL1       -0.0490
     24 C         140.9538  142.5442  166.8254 C.ar    1  UNL1        0.0064
     25 C         140.5902  143.1302  165.4933 C.ar    1  UNL1       -0.0040
     26 C         141.6643  143.4492  164.4960 C.ar    1  UNL1       -0.0245
     27 C         141.3007  144.0352  163.1639 C.3     1  UNL1        0.0455
@<TRIPOS>BOND
     1     1     2    1
     2     2     3   ar
     3     3     4   ar
     4     4    15    1
     5    15    17    1
     6    17    18    1
     7    18    19    1
     8    19    20    1
     9    20    21   ar
    10    21    22   ar
    11    22    23    1
    12    22    24   ar
    13    24    25   ar
    14    25    26   ar
    15    26    27    1
    16     4     5   ar
    17     5     6   ar
    18     6     7   ar
    19     7    11    1
    20    11    12    1
    21    11    13    1
    22    11    14    1
    23     7     8   ar
    24     8     9   ar
    25     9    10   ar
    26    10     2   ar
    27    27    17    1
    28     9     5   ar
    29    26    20   ar
    30    15    16    1
