@<TRIPOS>MOLECULE
*****
 28 30 0 0 0
SMALL
GASTEIGER

@<TRIPOS>ATOM
      1 C         140.9660  140.6297  167.4575 C.3     1  UNL1        0.1418
      2 O         140.3535  139.7946  168.5426 O.3     1  UNL1       -0.3772
      3 H         139.8359  139.0770  168.1451 H       1  UNL1        0.2112
      4 C         140.3335  139.7480  166.4219 C.ar    1  UNL1        0.0261
      5 C         141.1837  138.8177  165.6084 C.ar    1  UNL1        0.0015
      6 C         140.5511  137.9360  164.5728 C.ar    1  UNL1        0.0204
      7 C         139.0685  137.9846  164.3506 C.ar    1  UNL1        0.0989
      8 N         138.2184  138.9149  165.1641 N.ar    1  UNL1       -0.2426
      9 C         138.8509  139.7966  166.1998 C.ar    1  UNL1        0.0972
     10 C         141.5985  141.5114  168.4932 C.ar    1  UNL1        0.0261
     11 C         142.9848  141.2161  168.9842 C.ar    1  UNL1        0.0015
     12 C         143.6173  142.0978  170.0198 C.ar    1  UNL1        0.0204
     13 C         142.8636  143.2748  170.5644 C.ar    1  UNL1        0.0989
     14 N         141.4773  143.5700  170.0734 N.ar    1  UNL1       -0.2426
     15 C         140.8448  142.6883  169.0378 C.ar    1  UNL1        0.0972
     16 C         141.5785  141.4648  166.3725 C.3     1  UNL1        0.0903
     17 N         140.7012  142.2698  165.4600 N.3     1  UNL1       -0.2671
     18 C         140.6866  141.9827  163.9879 C.3     1  UNL1        0.1047
     19 C         139.8093  142.7877  163.0755 C.3     1  UNL1        0.1595
     20 O         138.9467  143.8798  163.6354 O.3     1  UNL1       -0.3508
     21 C         138.9614  144.1668  165.1075 C.3     1  UNL1        0.1595
     22 C         139.8387  143.3619  166.0199 C.3     1  UNL1        0.1047
     23 C         143.0682  141.4950  166.1998 C.3     1  UNL1        0.0190
     24 C         143.7536  142.7744  165.8209 C.3     1  UNL1        0.0015
     25 C         144.5810  142.8405  164.5715 C.3     1  UNL1        0.0000
     26 C         144.1058  143.6464  163.3991 C.3     1  UNL1        0.0000
     27 C         142.2330  145.4065  163.7795 C.3     1  UNL1        0.0000
     28 C         143.6832  145.0728  163.5912 C.3     1  UNL1        0.0000
@<TRIPOS>BOND
     1    27    28    1
     2    28    26    1
     3    26    25    1
     4    25    24    1
     5    24    23    1
     6    23    16    1
     7    16    17    1
     8    17    18    1
     9    18    19    1
    10    19    20    1
    11    20    21    1
    12    21    22    1
    13    16     1    1
    14     1     2    1
    15     1     4    1
    16     4     5   ar
    17     5     6   ar
    18     6     7   ar
    19     7     8   ar
    20     8     9   ar
    21     1    10    1
    22    10    11   ar
    23    11    12   ar
    24    12    13   ar
    25    13    14   ar
    26    14    15   ar
    27    22    17    1
    28     9     4   ar
    29    15    10   ar
    30     2     3    1
@<TRIPOS>MOLECULE
*****
 28 30 0 0 0
SMALL
GASTEIGER

@<TRIPOS>ATOM
      1 C         142.4553  142.0226  167.1410 C.3     1  UNL1        0.1418
      2 O         143.6849  142.6403  167.7381 O.3     1  UNL1       -0.3772
      3 H         143.5444  142.7885  168.6863 H       1  UNL1        0.2112
      4 C         141.7901  142.0474  168.4852 C.ar    1  UNL1        0.0261
      5 C         140.7207  143.0587  168.7743 C.ar    1  UNL1        0.0015
      6 C         140.0555  143.0834  170.1185 C.ar    1  UNL1        0.0204
      7 C         140.4597  142.0969  171.1736 C.ar    1  UNL1        0.0989
      8 N         141.5291  141.0856  170.8845 N.ar    1  UNL1       -0.2426
      9 C         142.1943  141.0608  169.5403 C.ar    1  UNL1        0.0972
     10 C         143.1205  141.9978  165.7968 C.ar    1  UNL1        0.0261
     11 C         143.5288  140.6901  165.1860 C.ar    1  UNL1        0.0015
     12 C         144.1940  140.6653  163.8418 C.ar    1  UNL1        0.0204
     13 C         144.4509  141.9483  163.1084 C.ar    1  UNL1        0.0989
     14 N         144.0425  143.2560  163.7191 N.ar    1  UNL1       -0.2426
     15 C         143.3773  143.2808  165.0633 C.ar    1  UNL1        0.0972
     16 C         141.2257  141.4049  166.5439 C.3     1  UNL1        0.0903
     17 N         140.4423  142.1490  165.5033 N.3     1  UNL1       -0.2671
     18 C         139.8653  143.4967  165.8203 C.3     1  UNL1        0.1047
     19 C         139.0819  144.2407  164.7798 C.3     1  UNL1        0.1595
     20 O         138.8756  143.6370  163.4222 O.3     1  UNL1       -0.3508
     21 C         139.4526  142.2892  163.1052 C.3     1  UNL1        0.1595
     22 C         140.2360  141.5452  164.1458 C.3     1  UNL1        0.1047
     23 C         140.7795  140.0432  166.9873 C.3     1  UNL1        0.0190
     24 C         139.3343  139.7930  167.3018 C.3     1  UNL1        0.0015
     25 C         138.4214  139.2427  166.2464 C.3     1  UNL1        0.0000
     26 C         138.6863  137.8890  165.6573 C.3     1  UNL1        0.0000
     27 C         140.9273  137.2678  164.4989 C.3     1  UNL1        0.0000
     28 C         139.5136  137.7615  164.4125 C.3     1  UNL1        0.0000
@<TRIPOS>BOND
     1    27    28    1
     2    28    26    1
     3    26    25    1
     4    25    24    1
     5    24    23    1
     6    23    16    1
     7    16    17    1
     8    17    18    1
     9    18    19    1
    10    19    20    1
    11    20    21    1
    12    21    22    1
    13    16     1    1
    14     1     2    1
    15     1     4    1
    16     4     5   ar
    17     5     6   ar
    18     6     7   ar
    19     7     8   ar
    20     8     9   ar
    21     1    10    1
    22    10    11   ar
    23    11    12   ar
    24    12    13   ar
    25    13    14   ar
    26    14    15   ar
    27    22    17    1
    28     9     4   ar
    29    15    10   ar
    30     2     3    1
@<TRIPOS>MOLECULE
*****
 28 30 0 0 0
SMALL
GASTEIGER

@<TRIPOS>ATOM
      1 C         142.4641  142.0427  167.1218 C.3     1  UNL1        0.1418
      2 O         143.6951  142.6585  167.7179 O.3     1  UNL1       -0.3772
      3 H         144.3643  142.7782  167.0259 H       1  UNL1        0.2112
      4 C         143.1263  142.0213  165.7761 C.ar    1  UNL1        0.0261
      5 C         143.5339  140.7152  165.1614 C.ar    1  UNL1        0.0015
      6 C         144.1962  140.6939  163.8157 C.ar    1  UNL1        0.0204
      7 C         144.4508  141.9787  163.0846 C.ar    1  UNL1        0.0989
      8 N         144.0433  143.2848  163.6993 N.ar    1  UNL1       -0.2426
      9 C         143.3810  143.3061  165.0451 C.ar    1  UNL1        0.0972
     10 C         141.8018  142.0640  168.4675 C.ar    1  UNL1        0.0261
     11 C         140.7210  143.0633  168.7558 C.ar    1  UNL1        0.0015
     12 C         140.0587  143.0846  170.1015 C.ar    1  UNL1        0.0204
     13 C         140.4773  142.1067  171.1590 C.ar    1  UNL1        0.0989
     14 N         141.5582  141.1074  170.8707 N.ar    1  UNL1       -0.2426
     15 C         142.2204  141.0861  169.5250 C.ar    1  UNL1        0.0972
     16 C         141.2330  141.4269  166.5257 C.3     1  UNL1        0.0903
     17 N         140.4491  142.1728  165.4868 N.3     1  UNL1       -0.2671
     18 C         140.2523  141.5767  164.1245 C.3     1  UNL1        0.1047
     19 C         139.4685  142.3226  163.0857 C.3     1  UNL1        0.1595
     20 O         138.8814  143.6645  163.4092 O.3     1  UNL1       -0.3508
     21 C         139.0782  144.2606  164.7715 C.3     1  UNL1        0.1595
     22 C         139.8621  143.5147  165.8103 C.3     1  UNL1        0.1047
     23 C         140.7858  140.0653  166.9685 C.3     1  UNL1        0.0190
     24 C         139.3421  139.8186  167.2924 C.3     1  UNL1        0.0015
     25 C         138.4241  139.2578  166.2471 C.3     1  UNL1        0.0000
     26 C         138.6835  137.8963  165.6736 C.3     1  UNL1        0.0000
     27 C         140.9066  137.3142  164.4616 C.3     1  UNL1        0.0000
     28 C         139.4736  137.7542  164.4065 C.3     1  UNL1        0.0000
@<TRIPOS>BOND
     1    27    28    1
     2    28    26    1
     3    26    25    1
     4    25    24    1
     5    24    23    1
     6    23    16    1
     7    16    17    1
     8    17    18    1
     9    18    19    1
    10    19    20    1
    11    20    21    1
    12    21    22    1
    13    16     1    1
    14     1     2    1
    15     1     4    1
    16     4     5   ar
    17     5     6   ar
    18     6     7   ar
    19     7     8   ar
    20     8     9   ar
    21     1    10    1
    22    10    11   ar
    23    11    12   ar
    24    12    13   ar
    25    13    14   ar
    26    14    15   ar
    27    22    17    1
    28     9     4   ar
    29    15    10   ar
    30     2     3    1
@<TRIPOS>MOLECULE
*****
 28 30 0 0 0
SMALL
GASTEIGER

@<TRIPOS>ATOM
      1 C         140.9380  140.8041  167.2651 C.3     1  UNL1        0.1418
      2 O         140.2670  139.9375  168.2892 O.3     1  UNL1       -0.3772
      3 H         139.7453  139.2530  167.8417 H       1  UNL1        0.2112
      4 C         140.3194  139.9880  166.1691 C.ar    1  UNL1        0.0261
      5 C         141.1681  139.0517  165.3609 C.ar    1  UNL1        0.0015
      6 C         140.5495  138.2355  164.2649 C.ar    1  UNL1        0.0204
      7 C         139.0823  138.3556  163.9771 C.ar    1  UNL1        0.0989
      8 N         138.2337  139.2918  164.7853 N.ar    1  UNL1       -0.2426
      9 C         138.8522  140.1080  165.8813 C.ar    1  UNL1        0.0972
     10 C         141.5565  141.6203  168.3611 C.ar    1  UNL1        0.0261
     11 C         142.9266  141.2798  168.8679 C.ar    1  UNL1        0.0015
     12 C         143.5451  142.0960  169.9639 C.ar    1  UNL1        0.0204
     13 C         142.7936  143.2527  170.5531 C.ar    1  UNL1        0.0989
     14 N         141.4236  143.5932  170.0463 N.ar    1  UNL1       -0.2426
     15 C         140.8050  142.7770  168.9503 C.ar    1  UNL1        0.0972
     16 C         141.6089  141.6708  166.2410 C.3     1  UNL1        0.0903
     17 N         140.7861  142.5558  165.3523 N.3     1  UNL1       -0.2671
     18 C         140.8751  142.4132  163.8618 C.3     1  UNL1        0.1047
     19 C         140.0523  143.2982  162.9732 C.3     1  UNL1        0.1595
     20 O         139.1404  144.3259  163.5751 O.3     1  UNL1       -0.3508
     21 C         139.0513  144.4685  165.0656 C.3     1  UNL1        0.1595
     22 C         139.8742  143.5835  165.9542 C.3     1  UNL1        0.1047
     23 C         143.1027  141.6525  166.1056 C.3     1  UNL1        0.0190
     24 C         143.8349  142.8991  165.7059 C.3     1  UNL1        0.0015
     25 C         144.5648  142.9531  164.3966 C.3     1  UNL1        0.0000
     26 C         145.4773  141.8307  163.9999 C.3     1  UNL1        0.0000
     27 C         144.5915  139.4106  163.6701 C.3     1  UNL1        0.0000
     28 C         144.9783  140.7417  163.0970 C.3     1  UNL1        0.0000
@<TRIPOS>BOND
     1    27    28    1
     2    28    26    1
     3    26    25    1
     4    25    24    1
     5    24    23    1
     6    23    16    1
     7    16    17    1
     8    17    18    1
     9    18    19    1
    10    19    20    1
    11    20    21    1
    12    21    22    1
    13    16     1    1
    14     1     2    1
    15     1     4    1
    16     4     5   ar
    17     5     6   ar
    18     6     7   ar
    19     7     8   ar
    20     8     9   ar
    21     1    10    1
    22    10    11   ar
    23    11    12   ar
    24    12    13   ar
    25    13    14   ar
    26    14    15   ar
    27    22    17    1
    28     9     4   ar
    29    15    10   ar
    30     2     3    1
@<TRIPOS>MOLECULE
*****
 28 30 0 0 0
SMALL
GASTEIGER

@<TRIPOS>ATOM
      1 C         141.9438  141.1423  167.5172 C.3     1  UNL1        0.1418
      2 O         142.9658  140.7236  168.5322 O.3     1  UNL1       -0.3772
      3 H         142.6705  140.9896  169.4171 H       1  UNL1        0.2112
      4 C         141.0981  141.7266  168.6096 C.ar    1  UNL1        0.0261
      5 C         141.2886  143.1560  169.0224 C.ar    1  UNL1        0.0015
      6 C         140.4429  143.7403  170.1148 C.ar    1  UNL1        0.0204
      7 C         139.4068  142.8951  170.7945 C.ar    1  UNL1        0.0989
      8 N         139.2163  141.4657  170.3818 N.ar    1  UNL1       -0.2426
      9 C         140.0620  140.8814  169.2893 C.ar    1  UNL1        0.0972
     10 C         142.7895  140.5580  166.4247 C.ar    1  UNL1        0.0261
     11 C         143.4853  141.4615  165.4503 C.ar    1  UNL1        0.0015
     12 C         144.3310  140.8772  164.3579 C.ar    1  UNL1        0.0204
     13 C         144.4809  139.3895  164.2398 C.ar    1  UNL1        0.0989
     14 N         143.7851  138.4860  165.2142 N.ar    1  UNL1       -0.2426
     15 C         142.9394  139.0702  166.3067 C.ar    1  UNL1        0.0972
     16 C         140.9219  141.5609  166.5021 C.3     1  UNL1        0.0903
     17 N         140.1180  140.5237  165.7753 N.3     1  UNL1       -0.2671
     18 C         140.1765  140.4425  164.2787 C.3     1  UNL1        0.1047
     19 C         139.3727  139.4053  163.5520 C.3     1  UNL1        0.1595
     20 O         138.5105  138.4494  164.3219 O.3     1  UNL1       -0.3508
     21 C         138.4520  138.5306  165.8185 C.3     1  UNL1        0.1595
     22 C         139.2558  139.5678  166.5452 C.3     1  UNL1        0.1047
     23 C         140.7037  143.0167  166.2139 C.3     1  UNL1        0.0190
     24 C         139.3445  143.5057  165.8093 C.3     1  UNL1        0.0015
     25 C         139.2134  144.7078  164.9218 C.3     1  UNL1        0.0000
     26 C         138.5432  144.5841  163.5857 C.3     1  UNL1        0.0000
     27 C         137.9627  142.5936  162.0201 C.3     1  UNL1        0.0000
     28 C         137.7091  143.3770  163.2739 C.3     1  UNL1        0.0000
@<TRIPOS>BOND
     1    27    28    1
     2    28    26    1
     3    26    25    1
     4    25    24    1
     5    24    23    1
     6    23    16    1
     7    16    17    1
     8    17    18    1
     9    18    19    1
    10    19    20    1
    11    20    21    1
    12    21    22    1
    13    16     1    1
    14     1     2    1
    15     1     4    1
    16     4     5   ar
    17     5     6   ar
    18     6     7   ar
    19     7     8   ar
    20     8     9   ar
    21     1    10    1
    22    10    11   ar
    23    11    12   ar
    24    12    13   ar
    25    13    14   ar
    26    14    15   ar
    27    22    17    1
    28     9     4   ar
    29    15    10   ar
    30     2     3    1
@<TRIPOS>MOLECULE
*****
 28 30 0 0 0
SMALL
GASTEIGER

@<TRIPOS>ATOM
      1 C         139.7815  140.0077  167.2528 C.3     1  UNL1        0.1418
      2 O         138.7080  139.1535  167.8591 O.3     1  UNL1       -0.3772
      3 H         138.7862  139.1735  168.8258 H       1  UNL1        0.2112
      4 C         140.2894  140.3427  168.6239 C.ar    1  UNL1        0.0261
      5 C         141.5999  139.7856  169.0951 C.ar    1  UNL1        0.0015
      6 C         142.1078  140.1205  170.4662 C.ar    1  UNL1        0.0204
      7 C         141.3051  141.0126  171.3661 C.ar    1  UNL1        0.0989
      8 N         139.9946  141.5697  170.8949 N.ar    1  UNL1       -0.2426
      9 C         139.4867  141.2347  169.5238 C.ar    1  UNL1        0.0972
     10 C         139.2737  139.6728  165.8817 C.ar    1  UNL1        0.0261
     11 C         138.4845  140.6855  165.1061 C.ar    1  UNL1        0.0015
     12 C         137.9767  140.3506  163.7350 C.ar    1  UNL1        0.0204
     13 C         138.2580  139.0029  163.1395 C.ar    1  UNL1        0.0989
     14 N         139.0471  137.9902  163.9151 N.ar    1  UNL1       -0.2426
     15 C         139.5549  138.3251  165.2862 C.ar    1  UNL1        0.0972
     16 C         140.8551  140.8620  166.6465 C.3     1  UNL1        0.0903
     17 N         141.9125  140.2383  165.7845 N.3     1  UNL1       -0.2671
     18 C         142.8224  139.1905  166.3537 C.3     1  UNL1        0.1047
     19 C         143.8798  138.5668  165.4918 C.3     1  UNL1        0.1595
     20 O         144.0272  138.9910  164.0606 O.3     1  UNL1       -0.3508
     21 C         143.1173  140.0388  163.4913 C.3     1  UNL1        0.1595
     22 C         142.0599  140.6624  164.3533 C.3     1  UNL1        0.1047
     23 C         140.8713  142.3400  166.9021 C.3     1  UNL1        0.0190
     24 C         140.3853  143.2890  165.8469 C.3     1  UNL1        0.0015
     25 C         139.2355  144.2077  166.1366 C.3     1  UNL1        0.0000
     26 C         138.4289  144.7785  165.0081 C.3     1  UNL1        0.0000
     27 C         137.8628  143.7958  162.6705 C.3     1  UNL1        0.0000
     28 C         138.8210  144.4959  163.5880 C.3     1  UNL1        0.0000
@<TRIPOS>BOND
     1    27    28    1
     2    28    26    1
     3    26    25    1
     4    25    24    1
     5    24    23    1
     6    23    16    1
     7    16    17    1
     8    17    18    1
     9    18    19    1
    10    19    20    1
    11    20    21    1
    12    21    22    1
    13    16     1    1
    14     1     2    1
    15     1     4    1
    16     4     5   ar
    17     5     6   ar
    18     6     7   ar
    19     7     8   ar
    20     8     9   ar
    21     1    10    1
    22    10    11   ar
    23    11    12   ar
    24    12    13   ar
    25    13    14   ar
    26    14    15   ar
    27    22    17    1
    28     9     4   ar
    29    15    10   ar
    30     2     3    1
@<TRIPOS>MOLECULE
*****
 28 30 0 0 0
SMALL
GASTEIGER

@<TRIPOS>ATOM
      1 C         139.6630  139.9296  167.0410 C.3     1  UNL1        0.1418
      2 O         138.6562  138.9802  167.6197 O.3     1  UNL1       -0.3772
      3 H         138.1341  138.5864  166.9033 H       1  UNL1        0.2112
      4 C         139.1625  139.6195  165.6614 C.ar    1  UNL1        0.0261
      5 C         138.3471  140.6326  164.9140 C.ar    1  UNL1        0.0015
      6 C         137.8466  140.3224  163.5344 C.ar    1  UNL1        0.0204
      7 C         138.1616  138.9992  162.9022 C.ar    1  UNL1        0.0989
      8 N         138.9770  137.9861  163.6496 N.ar    1  UNL1       -0.2426
      9 C         139.4774  138.2962  165.0292 C.ar    1  UNL1        0.0972
     10 C         140.1635  140.2398  168.4206 C.ar    1  UNL1        0.0261
     11 C         141.5389  139.8074  168.8343 C.ar    1  UNL1        0.0015
     12 C         142.0394  140.1175  170.2139 C.ar    1  UNL1        0.0204
     13 C         141.1645  140.8601  171.1798 C.ar    1  UNL1        0.0989
     14 N         139.7891  141.2925  170.7662 N.ar    1  UNL1       -0.2426
     15 C         139.2886  140.9824  169.3865 C.ar    1  UNL1        0.0972
     16 C         140.6698  140.8791  166.4623 C.3     1  UNL1        0.0903
     17 N         141.7921  140.3574  165.6147 N.3     1  UNL1       -0.2671
     18 C         142.7400  139.3365  166.1708 C.3     1  UNL1        0.1047
     19 C         143.8621  138.8148  165.3232 C.3     1  UNL1        0.1595
     20 O         144.0364  139.3140  163.9195 O.3     1  UNL1       -0.3508
     21 C         143.0885  140.3348  163.3633 C.3     1  UNL1        0.1595
     22 C         141.9663  140.8565  164.2110 C.3     1  UNL1        0.1047
     23 C         140.5544  142.3503  166.7312 C.3     1  UNL1        0.0190
     24 C         140.2985  143.3017  165.6001 C.3     1  UNL1        0.0015
     25 C         139.2048  144.3221  165.7112 C.3     1  UNL1        0.0000
     26 C         137.9866  144.2133  164.8428 C.3     1  UNL1        0.0000
     27 C         139.1034  145.0700  162.6590 C.3     1  UNL1        0.0000
     28 C         138.1314  144.1608  163.3507 C.3     1  UNL1        0.0000
@<TRIPOS>BOND
     1    27    28    1
     2    28    26    1
     3    26    25    1
     4    25    24    1
     5    24    23    1
     6    23    16    1
     7    16    17    1
     8    17    18    1
     9    18    19    1
    10    19    20    1
    11    20    21    1
    12    21    22    1
    13    16     1    1
    14     1     2    1
    15     1     4    1
    16     4     5   ar
    17     5     6   ar
    18     6     7   ar
    19     7     8   ar
    20     8     9   ar
    21     1    10    1
    22    10    11   ar
    23    11    12   ar
    24    12    13   ar
    25    13    14   ar
    26    14    15   ar
    27    22    17    1
    28     9     4   ar
    29    15    10   ar
    30     2     3    1
@<TRIPOS>MOLECULE
*****
 28 30 0 0 0
SMALL
GASTEIGER

@<TRIPOS>ATOM
      1 C         141.9531  141.1567  167.5116 C.3     1  UNL1        0.1418
      2 O         142.9903  140.7536  168.5174 O.3     1  UNL1       -0.3772
      3 H         143.7279  140.3164  168.0638 H       1  UNL1        0.2112
      4 C         142.7960  140.5821  166.4120 C.ar    1  UNL1        0.0261
      5 C         143.4804  141.4938  165.4371 C.ar    1  UNL1        0.0015
      6 C         144.3234  140.9192  164.3375 C.ar    1  UNL1        0.0204
      7 C         144.4820  139.4329  164.2127 C.ar    1  UNL1        0.0989
      8 N         143.7977  138.5212  165.1876 N.ar    1  UNL1       -0.2426
      9 C         142.9547  139.0958  166.2872 C.ar    1  UNL1        0.0972
     10 C         141.1101  141.7314  168.6112 C.ar    1  UNL1        0.0261
     11 C         141.3236  143.1472  169.0581 C.ar    1  UNL1        0.0015
     12 C         140.4806  143.7218  170.1578 C.ar    1  UNL1        0.0204
     13 C         139.4241  142.8806  170.8105 C.ar    1  UNL1        0.0989
     14 N         139.2106  141.4648  170.3636 N.ar    1  UNL1       -0.2426
     15 C         140.0536  140.8901  169.2640 C.ar    1  UNL1        0.0972
     16 C         140.9158  141.5598  166.5058 C.3     1  UNL1        0.0903
     17 N         140.1285  140.5103  165.7786 N.3     1  UNL1       -0.2671
     18 C         139.3012  139.5248  166.5495 C.3     1  UNL1        0.1047
     19 C         138.5140  138.4754  165.8222 C.3     1  UNL1        0.1595
     20 O         138.5541  138.4114  164.3241 O.3     1  UNL1       -0.3508
     21 C         139.3814  139.3969  163.5533 C.3     1  UNL1        0.1595
     22 C         140.1687  140.4463  164.2805 C.3     1  UNL1        0.1047
     23 C         140.6658  143.0123  166.2272 C.3     1  UNL1        0.0190
     24 C         139.2623  143.5114  166.0505 C.3     1  UNL1        0.0015
     25 C         139.0064  144.7738  165.2819 C.3     1  UNL1        0.0000
     26 C         139.2487  144.8131  163.8022 C.3     1  UNL1        0.0000
     27 C         137.6738  142.9298  162.9517 C.3     1  UNL1        0.0000
     28 C         138.1874  144.3358  162.8555 C.3     1  UNL1        0.0000
@<TRIPOS>BOND
     1    27    28    1
     2    28    26    1
     3    26    25    1
     4    25    24    1
     5    24    23    1
     6    23    16    1
     7    16    17    1
     8    17    18    1
     9    18    19    1
    10    19    20    1
    11    20    21    1
    12    21    22    1
    13    16     1    1
    14     1     2    1
    15     1     4    1
    16     4     5   ar
    17     5     6   ar
    18     6     7   ar
    19     7     8   ar
    20     8     9   ar
    21     1    10    1
    22    10    11   ar
    23    11    12   ar
    24    12    13   ar
    25    13    14   ar
    26    14    15   ar
    27    22    17    1
    28     9     4   ar
    29    15    10   ar
    30     2     3    1
@<TRIPOS>MOLECULE
*****
 28 30 0 0 0
SMALL
GASTEIGER

@<TRIPOS>ATOM
      1 C         140.4362  140.8479  166.8325 C.3     1  UNL1        0.1418
      2 O         139.5858  139.9092  167.6360 O.3     1  UNL1       -0.3772
      3 H         139.7509  140.0521  168.5812 H       1  UNL1        0.2112
      4 C         141.0077  141.4140  168.0985 C.ar    1  UNL1        0.0261
      5 C         140.5710  142.7659  168.5798 C.ar    1  UNL1        0.0015
      6 C         141.1424  143.3320  169.8458 C.ar    1  UNL1        0.0204
      7 C         142.1507  142.5462  170.6307 C.ar    1  UNL1        0.0989
      8 N         142.5874  141.1944  170.1494 N.ar    1  UNL1       -0.2426
      9 C         142.0159  140.6282  168.8834 C.ar    1  UNL1        0.0972
     10 C         139.8647  140.2818  165.5664 C.ar    1  UNL1        0.0261
     11 C         138.4552  140.6061  165.1690 C.ar    1  UNL1        0.0015
     12 C         137.8837  140.0400  163.9029 C.ar    1  UNL1        0.0204
     13 C         138.7218  139.1495  163.0343 C.ar    1  UNL1        0.0989
     14 N         140.1313  138.8252  163.4317 N.ar    1  UNL1       -0.2426
     15 C         140.7028  139.3913  164.6977 C.ar    1  UNL1        0.0972
     16 C         141.2866  141.7865  166.0289 C.3     1  UNL1        0.0903
     17 N         140.6419  142.8326  165.1685 N.3     1  UNL1       -0.2671
     18 C         139.6467  143.7841  165.7634 C.3     1  UNL1        0.1047
     19 C         139.0020  144.8300  164.9030 C.3     1  UNL1        0.1595
     20 O         139.3526  144.9245  163.4476 O.3     1  UNL1       -0.3508
     21 C         140.3479  143.9730  162.8527 C.3     1  UNL1        0.1595
     22 C         140.9925  142.9270  163.7131 C.3     1  UNL1        0.1047
     23 C         142.7817  141.6792  166.0857 C.3     1  UNL1        0.0190
     24 C         143.6139  142.9072  166.3087 C.3     1  UNL1        0.0015
     25 C         144.5714  143.3667  165.2495 C.3     1  UNL1        0.0000
     26 C         144.6835  142.6089  163.9599 C.3     1  UNL1        0.0000
     27 C         145.2119  140.0653  163.9867 C.3     1  UNL1        0.0000
     28 C         145.6694  141.4855  163.8333 C.3     1  UNL1        0.0000
@<TRIPOS>BOND
     1    27    28    1
     2    28    26    1
     3    26    25    1
     4    25    24    1
     5    24    23    1
     6    23    16    1
     7    16    17    1
     8    17    18    1
     9    18    19    1
    10    19    20    1
    11    20    21    1
    12    21    22    1
    13    16     1    1
    14     1     2    1
    15     1     4    1
    16     4     5   ar
    17     5     6   ar
    18     6     7   ar
    19     7     8   ar
    20     8     9   ar
    21     1    10    1
    22    10    11   ar
    23    11    12   ar
    24    12    13   ar
    25    13    14   ar
    26    14    15   ar
    27    22    17    1
    28     9     4   ar
    29    15    10   ar
    30     2     3    1
