@<TRIPOS>MOLECULE
*****
 29 31 0 0 0
SMALL
GASTEIGER

@<TRIPOS>ATOM
      1 O         143.1575  139.0388  166.2656 O.2     1  UNL1       -0.2732
      2 C         141.8881  138.9501  165.4713 C.2     1  UNL1        0.2430
      3 N         140.9373  140.1100  165.4450 N.am    1  UNL1       -0.2972
      4 H         140.1042  140.0518  164.9237 H       1  UNL1        0.1500
      5 C         141.5696  137.7017  164.7033 C.3     1  UNL1        0.1759
      6 N         141.7703  137.6635  163.2173 N.am    1  UNL1       -0.2931
      7 C         140.7808  138.3316  162.3094 C.2     1  UNL1        0.2462
      8 O         139.5905  139.0381  162.8874 O.2     1  UNL1       -0.2701
      9 H         142.5515  137.1998  162.8379 H       1  UNL1        0.1502
     10 C         140.9816  138.2934  160.8233 C.ar    1  UNL1        0.0535
     11 C         139.8214  138.5334  159.9034 C.ar    1  UNL1        0.0068
     12 C         140.0222  138.4952  158.4174 C.ar    1  UNL1        0.0298
     13 C         141.3831  138.2170  157.8514 C.ar    1  UNL1        0.1401
     14 F         141.5839  138.1787  156.3653 F       1  UNL1       -0.2042
     15 C         142.5433  137.9769  158.7713 C.ar    1  UNL1        0.0298
     16 C         142.3425  138.0152  160.2573 C.ar    1  UNL1        0.0068
     17 C         141.2558  141.3585  166.2130 C.3     1  UNL1        0.1169
     18 C         140.6938  141.5562  167.5896 C.ar    1  UNL1       -0.0003
     19 C         139.9970  140.4244  168.2848 C.ar    1  UNL1       -0.0024
     20 C         139.4349  140.6221  169.6615 C.ar    1  UNL1       -0.0003
     21 C         139.5697  141.9516  170.3428 C.ar    1  UNL1       -0.0000
     22 C         140.2666  143.0834  169.6475 C.ar    1  UNL1       -0.0003
     23 C         140.8286  142.8857  168.2709 C.ar    1  UNL1       -0.0024
     24 C         142.1364  142.4093  165.6043 C.ar    1  UNL1       -0.0003
     25 C         141.5660  143.3886  164.6216 C.ar    1  UNL1       -0.0024
     26 C         142.4466  144.4394  164.0130 C.ar    1  UNL1       -0.0003
     27 C         143.8975  144.5109  164.3870 C.ar    1  UNL1       -0.0000
     28 C         144.4678  143.5316  165.3697 C.ar    1  UNL1       -0.0003
     29 C         143.5872  142.4808  165.9784 C.ar    1  UNL1       -0.0024
@<TRIPOS>BOND
     1     1     2    2
     2     2     5    1
     3     5     6    1
     4     6     7   am
     5     7     8    2
     6     7    10    1
     7    10    11   ar
     8    11    12   ar
     9    12    13   ar
    10    13    14    1
    11    13    15   ar
    12    15    16   ar
    13     2     3   am
    14     3    17    1
    15    17    18    1
    16    18    19   ar
    17    19    20   ar
    18    20    21   ar
    19    21    22   ar
    20    22    23   ar
    21    17    24    1
    22    24    25   ar
    23    25    26   ar
    24    26    27   ar
    25    27    28   ar
    26    28    29   ar
    27    16    10   ar
    28    23    18   ar
    29    29    24   ar
    30     6     9    1
    31     3     4    1
@<TRIPOS>MOLECULE
*****
 29 31 0 0 0
SMALL
GASTEIGER

@<TRIPOS>ATOM
      1 O         143.0265  138.9652  166.2412 O.2     1  UNL1       -0.2732
      2 C         141.7579  138.9137  165.4425 C.2     1  UNL1        0.2430
      3 N         140.8389  140.0989  165.4172 N.am    1  UNL1       -0.2972
      4 H         140.0063  140.0651  164.8930 H       1  UNL1        0.1500
      5 C         141.4083  137.6770  164.6690 C.3     1  UNL1        0.1759
      6 N         141.6315  137.6315  163.1864 N.am    1  UNL1       -0.2931
      7 C         140.7001  138.3618  162.2649 C.2     1  UNL1        0.2462
      8 O         139.5454  139.1376  162.8260 O.2     1  UNL1       -0.2701
      9 H         142.3894  137.1223  162.8181 H       1  UNL1        0.1502
     10 C         140.9233  138.3163  160.7823 C.ar    1  UNL1        0.0535
     11 C         142.3017  138.0845  160.2381 C.ar    1  UNL1        0.0068
     12 C         142.5249  138.0390  158.7555 C.ar    1  UNL1        0.0298
     13 C         141.3696  138.2253  157.8171 C.ar    1  UNL1        0.1401
     14 F         141.5929  138.1798  156.3345 F       1  UNL1       -0.2042
     15 C         139.9912  138.4571  158.3613 C.ar    1  UNL1        0.0298
     16 C         139.7681  138.5026  159.8438 C.ar    1  UNL1        0.0068
     17 C         141.1885  141.3357  166.1907 C.3     1  UNL1        0.1169
     18 C         142.0848  142.3729  165.5818 C.ar    1  UNL1       -0.0003
     19 C         143.5417  142.4068  165.9367 C.ar    1  UNL1       -0.0024
     20 C         144.4381  143.4440  165.3277 C.ar    1  UNL1       -0.0003
     21 C         143.8775  144.4472  164.3638 C.ar    1  UNL1       -0.0000
     22 C         142.4204  144.4133  164.0088 C.ar    1  UNL1       -0.0003
     23 C         141.5241  143.3761  164.6178 C.ar    1  UNL1       -0.0024
     24 C         140.6417  141.5353  167.5732 C.ar    1  UNL1       -0.0003
     25 C         139.9231  140.4146  168.2645 C.ar    1  UNL1       -0.0024
     26 C         139.3763  140.6142  169.6470 C.ar    1  UNL1       -0.0003
     27 C         139.5482  141.9344  170.3381 C.ar    1  UNL1       -0.0000
     28 C         140.2668  143.0549  169.6469 C.ar    1  UNL1       -0.0003
     29 C         140.8135  142.8554  168.2644 C.ar    1  UNL1       -0.0024
@<TRIPOS>BOND
     1     1     2    2
     2     2     5    1
     3     5     6    1
     4     6     7   am
     5     7     8    2
     6     7    10    1
     7    10    11   ar
     8    11    12   ar
     9    12    13   ar
    10    13    14    1
    11    13    15   ar
    12    15    16   ar
    13     2     3   am
    14     3    17    1
    15    17    18    1
    16    18    19   ar
    17    19    20   ar
    18    20    21   ar
    19    21    22   ar
    20    22    23   ar
    21    17    24    1
    22    24    25   ar
    23    25    26   ar
    24    26    27   ar
    25    27    28   ar
    26    28    29   ar
    27    16    10   ar
    28    23    18   ar
    29    29    24   ar
    30     6     9    1
    31     3     4    1
@<TRIPOS>MOLECULE
*****
 29 31 0 0 0
SMALL
GASTEIGER

@<TRIPOS>ATOM
      1 O         142.5790  143.2254  164.3614 O.2     1  UNL1       -0.2732
      2 C         141.2851  143.9838  164.3871 C.2     1  UNL1        0.2430
      3 N         140.1865  143.5615  165.3170 N.am    1  UNL1       -0.2972
      4 H         139.3373  144.0593  165.3338 H       1  UNL1        0.1500
      5 C         141.0898  145.1646  163.4829 C.3     1  UNL1        0.1759
      6 N         141.6052  145.1244  162.0747 N.am    1  UNL1       -0.2931
      7 C         140.6554  144.9072  160.9343 C.2     1  UNL1        0.2462
      8 O         139.1901  144.7302  161.2020 O.2     1  UNL1       -0.2701
      9 H         142.5669  145.2405  161.8991 H       1  UNL1        0.1502
     10 C         141.1708  144.8669  159.5262 C.ar    1  UNL1        0.0535
     11 C         140.5782  145.7690  158.4846 C.ar    1  UNL1        0.0068
     12 C         141.0936  145.7287  157.0765 C.ar    1  UNL1        0.0298
     13 C         142.2016  144.7864  156.7101 C.ar    1  UNL1        0.1401
     14 F         142.7171  144.7461  155.3019 F       1  UNL1       -0.2042
     15 C         142.7943  143.8843  157.7517 C.ar    1  UNL1        0.0298
     16 C         142.2788  143.9246  159.1598 C.ar    1  UNL1        0.0068
     17 C         140.3818  142.3807  166.2212 C.3     1  UNL1        0.1169
     18 C         139.8346  141.0394  165.8320 C.ar    1  UNL1       -0.0003
     19 C         139.9806  140.5504  164.4215 C.ar    1  UNL1       -0.0024
     20 C         139.4334  139.2091  164.0323 C.ar    1  UNL1       -0.0003
     21 C         138.7402  138.3568  165.0536 C.ar    1  UNL1       -0.0000
     22 C         138.5942  138.8459  166.4642 C.ar    1  UNL1       -0.0003
     23 C         139.1414  140.1871  166.8533 C.ar    1  UNL1       -0.0024
     24 C         141.1243  142.5412  167.5146 C.ar    1  UNL1       -0.0003
     25 C         142.5443  142.0709  167.6277 C.ar    1  UNL1       -0.0024
     26 C         143.2868  142.2315  168.9211 C.ar    1  UNL1       -0.0003
     27 C         142.6093  142.8623  170.1015 C.ar    1  UNL1       -0.0000
     28 C         141.1895  143.3325  169.9884 C.ar    1  UNL1       -0.0003
     29 C         140.4470  143.1720  168.6950 C.ar    1  UNL1       -0.0024
@<TRIPOS>BOND
     1     1     2    2
     2     2     5    1
     3     5     6    1
     4     6     7   am
     5     7     8    2
     6     7    10    1
     7    10    11   ar
     8    11    12   ar
     9    12    13   ar
    10    13    14    1
    11    13    15   ar
    12    15    16   ar
    13     2     3   am
    14     3    17    1
    15    17    18    1
    16    18    19   ar
    17    19    20   ar
    18    20    21   ar
    19    21    22   ar
    20    22    23   ar
    21    17    24    1
    22    24    25   ar
    23    25    26   ar
    24    26    27   ar
    25    27    28   ar
    26    28    29   ar
    27    16    10   ar
    28    23    18   ar
    29    29    24   ar
    30     6     9    1
    31     3     4    1
@<TRIPOS>MOLECULE
*****
 29 31 0 0 0
SMALL
GASTEIGER

@<TRIPOS>ATOM
      1 O         140.9678  139.1202  166.0580 O.2     1  UNL1       -0.2732
      2 C         142.0527  139.7036  165.2020 C.2     1  UNL1        0.2430
      3 N         142.2571  141.1890  165.1592 N.am    1  UNL1       -0.2972
      4 H         142.9692  141.5719  164.5974 H       1  UNL1        0.1500
      5 C         142.9331  138.8017  164.3888 C.3     1  UNL1        0.1759
      6 N         142.8401  138.8134  162.8917 N.am    1  UNL1       -0.2931
      7 C         141.7163  138.0960  162.2045 C.2     1  UNL1        0.2462
      8 O         140.6854  137.3669  163.0142 O.2     1  UNL1       -0.2701
      9 H         143.5167  139.2919  162.3602 H       1  UNL1        0.1502
     10 C         141.6233  138.1076  160.7073 C.ar    1  UNL1        0.0535
     11 C         140.3406  138.5045  160.0386 C.ar    1  UNL1        0.0068
     12 C         140.2477  138.5161  158.5416 C.ar    1  UNL1        0.0298
     13 C         141.4374  138.1310  157.7133 C.ar    1  UNL1        0.1401
     14 F         141.3445  138.1426  156.2161 F       1  UNL1       -0.2042
     15 C         142.7201  137.7341  158.3820 C.ar    1  UNL1        0.0298
     16 C         142.8131  137.7225  159.8790 C.ar    1  UNL1        0.0068
     17 C         141.3767  142.0910  165.9724 C.3     1  UNL1        0.1169
     18 C         140.1705  142.7257  165.3460 C.ar    1  UNL1       -0.0003
     19 C         138.9338  141.9115  165.1067 C.ar    1  UNL1       -0.0024
     20 C         137.7275  142.5462  164.4802 C.ar    1  UNL1       -0.0003
     21 C         137.7582  143.9951  164.0932 C.ar    1  UNL1       -0.0000
     22 C         138.9951  144.8093  164.3326 C.ar    1  UNL1       -0.0003
     23 C         140.2012  144.1746  164.9590 C.ar    1  UNL1       -0.0024
     24 C         141.7024  142.3583  167.4120 C.ar    1  UNL1       -0.0003
     25 C         140.6401  142.8713  168.3386 C.ar    1  UNL1       -0.0024
     26 C         140.9659  143.1385  169.7782 C.ar    1  UNL1       -0.0003
     27 C         142.3539  142.8929  170.2912 C.ar    1  UNL1       -0.0000
     28 C         143.4161  142.3800  169.3647 C.ar    1  UNL1       -0.0003
     29 C         143.0903  142.1127  167.9251 C.ar    1  UNL1       -0.0024
@<TRIPOS>BOND
     1     1     2    2
     2     2     5    1
     3     5     6    1
     4     6     7   am
     5     7     8    2
     6     7    10    1
     7    10    11   ar
     8    11    12   ar
     9    12    13   ar
    10    13    14    1
    11    13    15   ar
    12    15    16   ar
    13     2     3   am
    14     3    17    1
    15    17    18    1
    16    18    19   ar
    17    19    20   ar
    18    20    21   ar
    19    21    22   ar
    20    22    23   ar
    21    17    24    1
    22    24    25   ar
    23    25    26   ar
    24    26    27   ar
    25    27    28   ar
    26    28    29   ar
    27    16    10   ar
    28    23    18   ar
    29    29    24   ar
    30     6     9    1
    31     3     4    1
@<TRIPOS>MOLECULE
*****
 29 31 0 0 0
SMALL
GASTEIGER

@<TRIPOS>ATOM
      1 O         142.6788  143.2171  164.4829 O.2     1  UNL1       -0.2732
      2 C         141.4009  144.0009  164.4333 C.2     1  UNL1        0.2430
      3 N         140.2504  143.6162  165.3155 N.am    1  UNL1       -0.2972
      4 H         139.4117  144.1307  165.2830 H       1  UNL1        0.1500
      5 C         141.2734  145.1695  163.5015 C.3     1  UNL1        0.1759
      6 N         141.6871  145.0328  162.0662 N.am    1  UNL1       -0.2931
      7 C         140.6806  145.2367  160.9729 C.2     1  UNL1        0.2462
      8 O         139.2604  145.5773  161.3149 O.2     1  UNL1       -0.2701
      9 H         142.6192  144.8092  161.8417 H       1  UNL1        0.1502
     10 C         141.0942  145.1000  159.5375 C.ar    1  UNL1        0.0535
     11 C         140.4052  145.9081  158.4782 C.ar    1  UNL1        0.0068
     12 C         140.8189  145.7714  157.0429 C.ar    1  UNL1        0.0298
     13 C         141.9216  144.8266  156.6669 C.ar    1  UNL1        0.1401
     14 F         142.3353  144.6899  155.2315 F       1  UNL1       -0.2042
     15 C         142.6106  144.0185  157.7262 C.ar    1  UNL1        0.0298
     16 C         142.1969  144.1552  159.1615 C.ar    1  UNL1        0.0068
     17 C         140.3778  142.4477  166.2474 C.3     1  UNL1        0.1169
     18 C         141.0982  142.6051  167.5536 C.ar    1  UNL1       -0.0003
     19 C         142.5023  142.0987  167.7015 C.ar    1  UNL1       -0.0024
     20 C         143.2227  142.2562  169.0078 C.ar    1  UNL1       -0.0003
     21 C         142.5389  142.9200  170.1661 C.ar    1  UNL1       -0.0000
     22 C         141.1347  143.4263  170.0182 C.ar    1  UNL1       -0.0003
     23 C         140.4144  143.2689  168.7120 C.ar    1  UNL1       -0.0024
     24 C         139.7849  141.1217  165.8729 C.ar    1  UNL1       -0.0003
     25 C         139.2825  140.1962  166.9412 C.ar    1  UNL1       -0.0024
     26 C         138.6896  138.8702  166.5668 C.ar    1  UNL1       -0.0003
     27 C         138.5991  138.4697  165.1240 C.ar    1  UNL1       -0.0000
     28 C         139.1014  139.3952  164.0558 C.ar    1  UNL1       -0.0003
     29 C         139.6943  140.7212  164.4303 C.ar    1  UNL1       -0.0024
@<TRIPOS>BOND
     1     1     2    2
     2     2     5    1
     3     5     6    1
     4     6     7   am
     5     7     8    2
     6     7    10    1
     7    10    11   ar
     8    11    12   ar
     9    12    13   ar
    10    13    14    1
    11    13    15   ar
    12    15    16   ar
    13     2     3   am
    14     3    17    1
    15    17    18    1
    16    18    19   ar
    17    19    20   ar
    18    20    21   ar
    19    21    22   ar
    20    22    23   ar
    21    17    24    1
    22    24    25   ar
    23    25    26   ar
    24    26    27   ar
    25    27    28   ar
    26    28    29   ar
    27    16    10   ar
    28    23    18   ar
    29    29    24   ar
    30     6     9    1
    31     3     4    1
@<TRIPOS>MOLECULE
*****
 29 31 0 0 0
SMALL
GASTEIGER

@<TRIPOS>ATOM
      1 O         141.0145  139.1042  166.0473 O.2     1  UNL1       -0.2732
      2 C         142.1156  139.6829  165.2092 C.2     1  UNL1        0.2430
      3 N         142.3151  141.1685  165.1548 N.am    1  UNL1       -0.2972
      4 H         143.0379  141.5484  164.6047 H       1  UNL1        0.1500
      5 C         143.0173  138.7760  164.4254 C.3     1  UNL1        0.1759
      6 N         142.8016  138.5943  162.9521 N.am    1  UNL1       -0.2931
      7 C         143.6359  139.3637  161.9714 C.2     1  UNL1        0.2462
      8 O         144.6861  140.3148  162.4639 O.2     1  UNL1       -0.2701
      9 H         142.1123  137.9700  162.6288 H       1  UNL1        0.1502
     10 C         143.4202  139.1820  160.4981 C.ar    1  UNL1        0.0535
     11 C         142.8796  137.8848  159.9736 C.ar    1  UNL1        0.0068
     12 C         142.6639  137.7032  158.5004 C.ar    1  UNL1        0.0298
     13 C         142.9888  138.8187  157.5517 C.ar    1  UNL1        0.1401
     14 F         142.7730  138.6370  156.0784 F       1  UNL1       -0.2042
     15 C         143.5294  140.1159  158.0761 C.ar    1  UNL1        0.0298
     16 C         143.7451  140.2975  159.5494 C.ar    1  UNL1        0.0068
     17 C         141.4134  142.0756  165.9387 C.3     1  UNL1        0.1169
     18 C         141.7093  142.3640  167.3806 C.ar    1  UNL1       -0.0003
     19 C         143.0856  142.1236  167.9264 C.ar    1  UNL1       -0.0024
     20 C         143.3816  142.4120  169.3684 C.ar    1  UNL1       -0.0003
     21 C         142.3012  142.9408  170.2645 C.ar    1  UNL1       -0.0000
     22 C         140.9248  143.1812  169.7187 C.ar    1  UNL1       -0.0003
     23 C         140.6289  142.8928  168.2767 C.ar    1  UNL1       -0.0024
     24 C         140.2158  142.6941  165.2805 C.ar    1  UNL1       -0.0003
     25 C         138.9629  141.8903  165.0957 C.ar    1  UNL1       -0.0024
     26 C         137.7653  142.5089  164.4375 C.ar    1  UNL1       -0.0003
     27 C         137.8207  143.9312  163.9642 C.ar    1  UNL1       -0.0000
     28 C         139.0736  144.7349  164.1490 C.ar    1  UNL1       -0.0003
     29 C         140.2712  144.1164  164.8072 C.ar    1  UNL1       -0.0024
@<TRIPOS>BOND
     1     1     2    2
     2     2     5    1
     3     5     6    1
     4     6     7   am
     5     7     8    2
     6     7    10    1
     7    10    11   ar
     8    11    12   ar
     9    12    13   ar
    10    13    14    1
    11    13    15   ar
    12    15    16   ar
    13     2     3   am
    14     3    17    1
    15    17    18    1
    16    18    19   ar
    17    19    20   ar
    18    20    21   ar
    19    21    22   ar
    20    22    23   ar
    21    17    24    1
    22    24    25   ar
    23    25    26   ar
    24    26    27   ar
    25    27    28   ar
    26    28    29   ar
    27    16    10   ar
    28    23    18   ar
    29    29    24   ar
    30     6     9    1
    31     3     4    1
@<TRIPOS>MOLECULE
*****
 29 31 0 0 0
SMALL
GASTEIGER

@<TRIPOS>ATOM
      1 O         137.9732  142.3138  164.6005 O.2     1  UNL1       -0.2732
      2 C         138.7123  141.0708  164.2022 C.2     1  UNL1        0.2430
      3 N         140.0844  140.8068  164.7476 N.am    1  UNL1       -0.2972
      4 H         140.5695  139.9910  164.4862 H       1  UNL1        0.1500
      5 C         138.0793  140.0918  163.2584 C.3     1  UNL1        0.1759
      6 N         138.7197  139.8071  161.9321 N.am    1  UNL1       -0.2931
      7 C         139.8654  138.8430  161.8440 C.2     1  UNL1        0.2462
      8 O         140.3707  138.1635  163.0820 O.2     1  UNL1       -0.2701
      9 H         138.3881  140.2531  161.1195 H       1  UNL1        0.1502
     10 C         140.5058  138.5583  160.5177 C.ar    1  UNL1        0.0535
     11 C         141.9688  138.2357  160.4451 C.ar    1  UNL1        0.0068
     12 C         142.6091  137.9511  159.1189 C.ar    1  UNL1        0.0298
     13 C         141.7864  137.9891  157.8652 C.ar    1  UNL1        0.1401
     14 F         142.4268  137.7044  156.5389 F       1  UNL1       -0.2042
     15 C         140.3233  138.3117  157.9378 C.ar    1  UNL1        0.0298
     16 C         139.6830  138.5964  159.2640 C.ar    1  UNL1        0.0068
     17 C         140.7175  141.7859  165.6915 C.3     1  UNL1        0.1169
     18 C         140.3795  141.7453  167.1523 C.ar    1  UNL1       -0.0003
     19 C         139.8185  140.4928  167.7577 C.ar    1  UNL1       -0.0024
     20 C         139.4805  140.4522  169.2186 C.ar    1  UNL1       -0.0003
     21 C         139.7034  141.6640  170.0740 C.ar    1  UNL1       -0.0000
     22 C         140.2644  142.9165  169.4685 C.ar    1  UNL1       -0.0003
     23 C         140.6025  142.9571  168.0077 C.ar    1  UNL1       -0.0024
     24 C         141.6886  142.8055  165.1744 C.ar    1  UNL1       -0.0003
     25 C         141.1885  144.0066  164.4278 C.ar    1  UNL1       -0.0024
     26 C         142.1596  145.0262  163.9108 C.ar    1  UNL1       -0.0003
     27 C         143.6309  144.8447  164.1403 C.ar    1  UNL1       -0.0000
     28 C         144.1309  143.6436  164.8868 C.ar    1  UNL1       -0.0003
     29 C         143.1598  142.6240  165.4039 C.ar    1  UNL1       -0.0024
@<TRIPOS>BOND
     1     1     2    2
     2     2     5    1
     3     5     6    1
     4     6     7   am
     5     7     8    2
     6     7    10    1
     7    10    11   ar
     8    11    12   ar
     9    12    13   ar
    10    13    14    1
    11    13    15   ar
    12    15    16   ar
    13     2     3   am
    14     3    17    1
    15    17    18    1
    16    18    19   ar
    17    19    20   ar
    18    20    21   ar
    19    21    22   ar
    20    22    23   ar
    21    17    24    1
    22    24    25   ar
    23    25    26   ar
    24    26    27   ar
    25    27    28   ar
    26    28    29   ar
    27    16    10   ar
    28    23    18   ar
    29    29    24   ar
    30     6     9    1
    31     3     4    1
@<TRIPOS>MOLECULE
*****
 29 31 0 0 0
SMALL
GASTEIGER

@<TRIPOS>ATOM
      1 O         138.2028  141.8259  164.7931 O.2     1  UNL1       -0.2732
      2 C         139.0047  140.5773  164.5741 C.2     1  UNL1        0.2430
      3 N         140.3582  140.4349  165.2048 N.am    1  UNL1       -0.2972
      4 H         140.8845  139.6154  165.0610 H       1  UNL1        0.1500
      5 C         138.4531  139.4711  163.7245 C.3     1  UNL1        0.1759
      6 N         138.9196  139.3094  162.3080 N.am    1  UNL1       -0.2931
      7 C         140.2219  138.6226  162.0211 C.2     1  UNL1        0.2462
      8 O         141.0577  138.0975  163.1505 O.2     1  UNL1       -0.2701
      9 H         138.3711  139.6540  161.5667 H       1  UNL1        0.1502
     10 C         140.6884  138.4609  160.6046 C.ar    1  UNL1        0.0535
     11 C         142.1330  138.1757  160.3187 C.ar    1  UNL1        0.0068
     12 C         142.5994  138.0140  158.9023 C.ar    1  UNL1        0.0298
     13 C         141.6213  138.1376  157.7718 C.ar    1  UNL1        0.1401
     14 F         142.0878  137.9759  156.3553 F       1  UNL1       -0.2042
     15 C         140.1767  138.4228  158.0577 C.ar    1  UNL1        0.0298
     16 C         139.7103  138.5844  159.4741 C.ar    1  UNL1        0.0068
     17 C         140.9099  141.5412  166.0545 C.3     1  UNL1        0.1169
     18 C         141.8935  142.5135  165.4740 C.ar    1  UNL1       -0.0003
     19 C         141.4142  143.6312  164.5960 C.ar    1  UNL1       -0.0024
     20 C         142.3979  144.6036  164.0155 C.ar    1  UNL1       -0.0003
     21 C         143.8609  144.4581  164.3130 C.ar    1  UNL1       -0.0000
     22 C         144.3402  143.3403  165.1910 C.ar    1  UNL1       -0.0003
     23 C         143.3565  142.3680  165.7715 C.ar    1  UNL1       -0.0024
     24 C         140.4778  141.6751  167.4846 C.ar    1  UNL1       -0.0003
     25 C         139.8608  140.5064  168.1943 C.ar    1  UNL1       -0.0024
     26 C         139.4288  140.6403  169.6245 C.ar    1  UNL1       -0.0003
     27 C         139.6137  141.9429  170.3450 C.ar    1  UNL1       -0.0000
     28 C         140.2306  143.1116  169.6353 C.ar    1  UNL1       -0.0003
     29 C         140.6627  142.9777  168.2051 C.ar    1  UNL1       -0.0024
@<TRIPOS>BOND
     1     1     2    2
     2     2     5    1
     3     5     6    1
     4     6     7   am
     5     7     8    2
     6     7    10    1
     7    10    11   ar
     8    11    12   ar
     9    12    13   ar
    10    13    14    1
    11    13    15   ar
    12    15    16   ar
    13     2     3   am
    14     3    17    1
    15    17    18    1
    16    18    19   ar
    17    19    20   ar
    18    20    21   ar
    19    21    22   ar
    20    22    23   ar
    21    17    24    1
    22    24    25   ar
    23    25    26   ar
    24    26    27   ar
    25    27    28   ar
    26    28    29   ar
    27    16    10   ar
    28    23    18   ar
    29    29    24   ar
    30     6     9    1
    31     3     4    1
@<TRIPOS>MOLECULE
*****
 29 31 0 0 0
SMALL
GASTEIGER

@<TRIPOS>ATOM
      1 O         141.1145  139.0947  166.1838 O.2     1  UNL1       -0.2732
      2 C         142.1962  139.6733  165.3206 C.2     1  UNL1        0.2430
      3 N         142.3547  141.1610  165.2132 N.am    1  UNL1       -0.2972
      4 H         143.0647  141.5408  164.6466 H       1  UNL1        0.1500
      5 C         143.1193  138.7643  164.5647 C.3     1  UNL1        0.1759
      6 N         142.9369  138.5688  163.0886 N.am    1  UNL1       -0.2931
      7 C         143.5474  139.5403  162.1224 C.2     1  UNL1        0.2462
      8 O         144.3402  140.7072  162.6322 O.2     1  UNL1       -0.2701
      9 H         142.4166  137.8030  162.7541 H       1  UNL1        0.1502
     10 C         143.3650  139.3448  160.6464 C.ar    1  UNL1        0.0535
     11 C         143.7254  140.4461  159.6939 C.ar    1  UNL1        0.0068
     12 C         143.5430  140.2506  158.2179 C.ar    1  UNL1        0.0298
     13 C         143.0003  138.9539  157.6945 C.ar    1  UNL1        0.1401
     14 F         142.8180  138.7584  156.2184 F       1  UNL1       -0.2042
     15 C         142.6400  137.8526  158.6470 C.ar    1  UNL1        0.0298
     16 C         142.8224  138.0481  160.1229 C.ar    1  UNL1        0.0068
     17 C         141.4316  142.0702  165.9691 C.3     1  UNL1        0.1169
     18 C         140.2473  142.6792  165.2787 C.ar    1  UNL1       -0.0003
     19 C         140.3239  144.0833  164.7566 C.ar    1  UNL1       -0.0024
     20 C         139.1396  144.6924  164.0662 C.ar    1  UNL1       -0.0003
     21 C         137.8789  143.8972  163.8979 C.ar    1  UNL1       -0.0000
     22 C         137.8024  142.4931  164.4200 C.ar    1  UNL1       -0.0003
     23 C         138.9866  141.8841  165.1104 C.ar    1  UNL1       -0.0024
     24 C         141.6927  142.3703  167.4154 C.ar    1  UNL1       -0.0003
     25 C         140.5968  142.9261  168.2758 C.ar    1  UNL1       -0.0024
     26 C         140.8580  143.2262  169.7221 C.ar    1  UNL1       -0.0003
     27 C         142.2150  142.9706  170.3079 C.ar    1  UNL1       -0.0000
     28 C         143.3108  142.4148  169.4475 C.ar    1  UNL1       -0.0003
     29 C         143.0497  142.1147  168.0013 C.ar    1  UNL1       -0.0024
@<TRIPOS>BOND
     1     1     2    2
     2     2     5    1
     3     5     6    1
     4     6     7   am
     5     7     8    2
     6     7    10    1
     7    10    11   ar
     8    11    12   ar
     9    12    13   ar
    10    13    14    1
    11    13    15   ar
    12    15    16   ar
    13     2     3   am
    14     3    17    1
    15    17    18    1
    16    18    19   ar
    17    19    20   ar
    18    20    21   ar
    19    21    22   ar
    20    22    23   ar
    21    17    24    1
    22    24    25   ar
    23    25    26   ar
    24    26    27   ar
    25    27    28   ar
    26    28    29   ar
    27    16    10   ar
    28    23    18   ar
    29    29    24   ar
    30     6     9    1
    31     3     4    1
