@<TRIPOS>MOLECULE
*****
 37 40 0 0 0
SMALL
GASTEIGER

@<TRIPOS>ATOM
      1 C         139.5514  142.0773  163.7082 C.2     1  UNL1        0.1397
      2 C         139.5838  141.9995  162.2106 C.2     1  UNL1        0.1355
      3 N         140.4663  140.9950  161.5307 N.pl3   1  UNL1       -0.1998
      4 C         141.3164  140.0684  162.3484 C.2     1  UNL1        0.3442
      5 N         141.2839  140.1462  163.8460 N.2     1  UNL1       -0.0580
      6 C         140.4014  141.1506  164.5259 C.3     1  UNL1        0.2692
      7 H         140.4876  140.9440  160.5477 H       1  UNL1        0.2983
      8 C         140.3690  141.2284  166.0236 C.ar    1  UNL1        0.0371
      9 C         141.2230  142.2313  166.7411 C.ar    1  UNL1        0.0030
     10 C         141.1906  142.3091  168.2387 C.ar    1  UNL1        0.0295
     11 C         140.3042  141.3840  169.0188 C.ar    1  UNL1        0.1406
     12 F         140.2718  141.4618  170.5164 F       1  UNL1       -0.2042
     13 C         139.4502  140.3811  168.3013 C.ar    1  UNL1        0.0362
     14 C         139.4826  140.3033  166.8036 C.ar    1  UNL1        0.0372
     15 BR        138.6286  139.3004  166.0860 Br      1  UNL1       -0.0491
     16 C         142.1989  139.0639  161.6685 C.ar    1  UNL1        0.1931
     17 N         141.8728  138.3104  160.4131 N.ar    1  UNL1       -0.2297
     18 C         143.0348  137.4174  160.0933 C.ar    1  UNL1        0.1067
     19 C         144.0791  137.6190  161.1511 C.ar    1  UNL1        0.0577
     20 S         143.5625  138.6366  162.1246 S.2     1  UNL1       -0.0586
     21 C         138.6688  143.0817  164.3881 C.2     1  UNL1        0.3447
     22 O         137.2163  142.7777  164.6064 O.2     1  UNL1       -0.2450
     23 O         139.2389  144.3901  164.8496 O.3     1  UNL1       -0.4455
     24 C         141.6778  144.8339  164.0718 C.3     1  UNL1        0.0513
     25 C         140.2106  145.1329  163.9813 C.3     1  UNL1        0.2089
     26 C         138.7337  142.9261  161.3928 C.3     1  UNL1        0.1407
     27 N         138.9321  143.0123  159.9085 N.3     1  UNL1       -0.2585
     28 C         138.2752  142.0116  159.0046 C.3     1  UNL1        0.1002
     29 C         138.4737  142.0978  157.5203 C.3     1  UNL1        0.1076
     30 C         138.3615  141.7665  156.0616 C.3     1  UNL1        0.0311
     31 C         137.5794  140.8958  157.5941 C.3     1  UNL1        0.0311
     32 O         139.3290  143.1848  156.9398 O.3     1  UNL1       -0.3553
     33 C         139.9859  144.1855  157.8437 C.3     1  UNL1        0.1635
     34 C         139.7875  144.0993  159.3280 C.3     1  UNL1        0.1247
     35 C         140.4444  145.1001  160.2319 C.2     1  UNL1        0.0673
     36 O         141.8991  144.9627  160.5715 O.co2   1  UNL1       -0.5477
     37 O         139.6468  146.2381  160.7962 O.co2   1  UNL1       -0.5477
@<TRIPOS>UNITY_ATOM_ATTR
36 1
charge -1
@<TRIPOS>BOND
     1    24    25    1
     2    25    23    1
     3    23    21    1
     4    21    22    2
     5    21     1    1
     6     1     2    2
     7     2    26    1
     8    26    27    1
     9    27    28    1
    10    28    29    1
    11    29    30    1
    12    29    31    1
    13    29    32    1
    14    32    33    1
    15    33    34    1
    16    34    35    1
    17    35    36   ar
    18    35    37   ar
    19     2     3    1
    20     3     4    1
    21     4    16    1
    22    16    17   ar
    23    17    18   ar
    24    18    19   ar
    25    19    20   ar
    26     4     5    2
    27     5     6    1
    28     6     8    1
    29     8     9   ar
    30     9    10   ar
    31    10    11   ar
    32    11    12    1
    33    11    13   ar
    34    13    14   ar
    35    14    15    1
    36     6     1    1
    37    14     8   ar
    38    34    27    1
    39    20    16   ar
    40     3     7    1
@<TRIPOS>MOLECULE
*****
 37 40 0 0 0
SMALL
GASTEIGER

@<TRIPOS>ATOM
      1 C         139.3132  140.9476  160.9424 C.2     1  UNL1        0.1397
      2 C         139.3628  140.2021  159.6418 C.2     1  UNL1        0.1355
      3 N         139.0127  140.9022  158.3622 N.pl3   1  UNL1       -0.1998
      4 C         138.6130  142.3477  158.3832 C.2     1  UNL1        0.3442
      5 N         138.5635  143.0933  159.6838 N.2     1  UNL1       -0.0580
      6 C         138.9136  142.3932  160.9634 C.3     1  UNL1        0.2692
      7 H         139.0452  140.4128  157.5085 H       1  UNL1        0.2983
      8 C         138.8640  143.1388  162.2641 C.ar    1  UNL1        0.0371
      9 C         137.6218  143.0999  163.1040 C.ar    1  UNL1        0.0030
     10 C         137.5722  143.8455  164.4046 C.ar    1  UNL1        0.0295
     11 C         138.7648  144.6300  164.8654 C.ar    1  UNL1        0.1406
     12 F         138.7152  145.3755  166.1660 F       1  UNL1       -0.2042
     13 C         140.0070  144.6689  164.0255 C.ar    1  UNL1        0.0362
     14 C         140.0566  143.9233  162.7248 C.ar    1  UNL1        0.0372
     15 BR        141.2988  143.9622  161.8849 Br      1  UNL1       -0.0491
     16 C         138.2629  143.0478  157.1036 C.ar    1  UNL1        0.1931
     17 N         136.9713  142.9175  156.3522 N.ar    1  UNL1       -0.2297
     18 C         137.0531  143.7903  155.1349 C.ar    1  UNL1        0.1067
     19 C         138.3953  144.4600  155.1341 C.ar    1  UNL1        0.0577
     20 S         139.1430  144.0011  156.3508 S.2     1  UNL1       -0.0586
     21 C         139.6633  140.2475  162.2220 C.2     1  UNL1        0.3447
     22 O         141.0724  140.2829  162.7350 O.2     1  UNL1       -0.2450
     23 O         138.6043  139.5121  162.9885 O.3     1  UNL1       -0.4455
     24 C         139.1234  137.7104  164.7871 C.3     1  UNL1        0.0513
     25 C         138.8128  138.0753  163.3656 C.3     1  UNL1        0.2089
     26 C         139.7624  138.7564  159.6207 C.3     1  UNL1        0.1407
     27 N         140.5335  138.2084  158.4566 N.3     1  UNL1       -0.2585
     28 C         139.8063  137.7110  157.2426 C.3     1  UNL1        0.1002
     29 C         140.5774  137.1629  156.0785 C.3     1  UNL1        0.1076
     30 C         140.8625  136.5597  154.7351 C.3     1  UNL1        0.0311
     31 C         139.1781  137.0042  155.5620 C.3     1  UNL1        0.0311
     32 O         142.0757  137.1122  156.1285 O.3     1  UNL1       -0.3553
     33 C         142.8029  137.6096  157.3425 C.3     1  UNL1        0.1635
     34 C         142.0319  138.1576  158.5065 C.3     1  UNL1        0.1247
     35 C         142.7591  138.6549  159.7206 C.2     1  UNL1        0.0673
     36 O         143.0067  140.1238  159.8971 O.co2   1  UNL1       -0.5477
     37 O         143.2386  137.6835  160.7580 O.co2   1  UNL1       -0.5477
@<TRIPOS>UNITY_ATOM_ATTR
36 1
charge -1
@<TRIPOS>BOND
     1    24    25    1
     2    25    23    1
     3    23    21    1
     4    21    22    2
     5    21     1    1
     6     1     2    2
     7     2    26    1
     8    26    27    1
     9    27    28    1
    10    28    29    1
    11    29    30    1
    12    29    31    1
    13    29    32    1
    14    32    33    1
    15    33    34    1
    16    34    35    1
    17    35    36   ar
    18    35    37   ar
    19     2     3    1
    20     3     4    1
    21     4    16    1
    22    16    17   ar
    23    17    18   ar
    24    18    19   ar
    25    19    20   ar
    26     4     5    2
    27     5     6    1
    28     6     8    1
    29     8     9   ar
    30     9    10   ar
    31    10    11   ar
    32    11    12    1
    33    11    13   ar
    34    13    14   ar
    35    14    15    1
    36     6     1    1
    37    14     8   ar
    38    34    27    1
    39    20    16   ar
    40     3     7    1
@<TRIPOS>MOLECULE
*****
 37 40 0 0 0
SMALL
GASTEIGER

@<TRIPOS>ATOM
      1 C         140.5725  141.3777  160.8231 C.2     1  UNL1        0.1397
      2 C         140.8133  140.5878  159.5709 C.2     1  UNL1        0.1355
      3 N         139.8276  140.6527  158.4421 N.pl3   1  UNL1       -0.1998
      4 C         138.6012  141.5074  158.5654 C.2     1  UNL1        0.3442
      5 N         138.3604  142.2973  159.8176 N.2     1  UNL1       -0.0580
      6 C         139.3461  142.2325  160.9464 C.3     1  UNL1        0.2692
      7 H         139.9857  140.1342  157.6202 H       1  UNL1        0.2983
      8 C         139.1053  143.0224  162.1987 C.ar    1  UNL1        0.0371
      9 C         139.7442  144.3686  162.3707 C.ar    1  UNL1        0.0030
     10 C         139.5034  145.1586  163.6229 C.ar    1  UNL1        0.0295
     11 C         138.6236  144.6024  164.7031 C.ar    1  UNL1        0.1406
     12 F         138.3828  145.3923  165.9552 F       1  UNL1       -0.2042
     13 C         137.9847  143.2562  164.5310 C.ar    1  UNL1        0.0362
     14 C         138.2256  142.4662  163.2788 C.ar    1  UNL1        0.0372
     15 BR        137.5867  141.1200  163.1068 Br      1  UNL1       -0.0491
     16 C         137.6156  141.5722  157.4365 C.ar    1  UNL1        0.1931
     17 N         136.5927  140.5286  157.0981 N.ar    1  UNL1       -0.2297
     18 C         135.8247  141.0034  155.9003 C.ar    1  UNL1        0.1067
     19 C         136.3729  142.3406  155.4985 C.ar    1  UNL1        0.0577
     20 S         137.4797  142.6921  156.4479 S.2     1  UNL1       -0.0586
     21 C         141.5582  141.3129  161.9520 C.2     1  UNL1        0.3447
     22 O         141.3225  140.3775  163.1006 O.2     1  UNL1       -0.2450
     23 O         142.7795  142.1835  161.9322 O.3     1  UNL1       -0.4455
     24 C         143.4670  144.4761  162.9428 C.3     1  UNL1        0.0513
     25 C         143.1174  143.0287  163.1244 C.3     1  UNL1        0.2089
     26 C         142.0398  139.7330  159.4475 C.3     1  UNL1        0.1407
     27 N         143.0138  139.9753  158.3328 N.3     1  UNL1       -0.2585
     28 C         143.9590  141.1379  158.4022 C.3     1  UNL1        0.1002
     29 C         144.9331  141.3801  157.2874 C.3     1  UNL1        0.1076
     30 C         146.0293  142.0191  156.4875 C.3     1  UNL1        0.0311
     31 C         145.2851  142.5224  158.1937 C.3     1  UNL1        0.0311
     32 O         144.9618  140.4598  156.1033 O.3     1  UNL1       -0.3553
     33 C         144.0165  139.2972  156.0340 C.3     1  UNL1        0.1635
     34 C         143.0425  139.0549  157.1487 C.3     1  UNL1        0.1247
     35 C         142.0972  137.8923  157.0793 C.2     1  UNL1        0.0673
     36 O         140.6480  138.1216  156.7676 O.co2   1  UNL1       -0.5477
     37 O         142.6012  136.5005  157.3215 O.co2   1  UNL1       -0.5477
@<TRIPOS>UNITY_ATOM_ATTR
36 1
charge -1
@<TRIPOS>BOND
     1    24    25    1
     2    25    23    1
     3    23    21    1
     4    21    22    2
     5    21     1    1
     6     1     2    2
     7     2    26    1
     8    26    27    1
     9    27    28    1
    10    28    29    1
    11    29    30    1
    12    29    31    1
    13    29    32    1
    14    32    33    1
    15    33    34    1
    16    34    35    1
    17    35    36   ar
    18    35    37   ar
    19     2     3    1
    20     3     4    1
    21     4    16    1
    22    16    17   ar
    23    17    18   ar
    24    18    19   ar
    25    19    20   ar
    26     4     5    2
    27     5     6    1
    28     6     8    1
    29     8     9   ar
    30     9    10   ar
    31    10    11   ar
    32    11    12    1
    33    11    13   ar
    34    13    14   ar
    35    14    15    1
    36     6     1    1
    37    14     8   ar
    38    34    27    1
    39    20    16   ar
    40     3     7    1
@<TRIPOS>MOLECULE
*****
 37 40 0 0 0
SMALL
GASTEIGER

@<TRIPOS>ATOM
      1 C         142.4661  139.9410  160.4982 C.2     1  UNL1        0.1397
      2 C         143.2363  140.3092  159.2649 C.2     1  UNL1        0.1355
      3 N         143.4047  139.3095  158.1594 N.pl3   1  UNL1       -0.1998
      4 C         142.8029  137.9415  158.2872 C.2     1  UNL1        0.3442
      5 N         142.0327  137.5733  159.5205 N.2     1  UNL1       -0.0580
      6 C         141.8643  138.5730  160.6260 C.3     1  UNL1        0.2692
      7 H         143.9102  139.5512  157.3499 H       1  UNL1        0.2983
      8 C         141.0941  138.2047  161.8594 C.ar    1  UNL1        0.0371
      9 C         141.8174  137.6992  163.0723 C.ar    1  UNL1        0.0030
     10 C         141.0473  137.3309  164.3056 C.ar    1  UNL1        0.0295
     11 C         139.5536  137.4681  164.3261 C.ar    1  UNL1        0.1406
     12 F         138.7835  137.0998  165.5594 F       1  UNL1       -0.2042
     13 C         138.8303  137.9737  163.1132 C.ar    1  UNL1        0.0362
     14 C         139.6005  138.3420  161.8798 C.ar    1  UNL1        0.0372
     15 BR        138.8772  138.8475  160.6669 Br      1  UNL1       -0.0491
     16 C         142.9713  136.9418  157.1817 C.ar    1  UNL1        0.1931
     17 N         143.0691  135.4540  157.3457 N.ar    1  UNL1       -0.2297
     18 C         143.2297  134.8470  155.9834 C.ar    1  UNL1        0.1067
     19 C         143.2311  135.9596  154.9775 C.ar    1  UNL1        0.0577
     20 S         143.0714  137.2542  155.7180 S.2     1  UNL1       -0.0586
     21 C         142.2977  140.9408  161.6037 C.2     1  UNL1        0.3447
     22 O         140.9916  141.6584  161.7734 O.2     1  UNL1       -0.2450
     23 O         143.4355  141.2229  162.5395 O.3     1  UNL1       -0.4455
     24 C         144.8606  139.6759  164.0648 C.3     1  UNL1        0.0513
     25 C         144.5378  140.2189  162.7042 C.3     1  UNL1        0.2089
     26 C         143.8382  141.6773  159.1370 C.3     1  UNL1        0.1407
     27 N         143.1206  142.7430  158.3629 N.3     1  UNL1       -0.2585
     28 C         142.1132  143.6181  159.0481 C.3     1  UNL1        0.1002
     29 C         141.3956  144.6838  158.2739 C.3     1  UNL1        0.1076
     30 C         140.4652  145.8204  157.9700 C.3     1  UNL1        0.0311
     31 C         140.7827  144.8879  159.6277 C.3     1  UNL1        0.0311
     32 O         141.6854  144.8744  156.8146 O.3     1  UNL1       -0.3553
     33 C         142.6928  143.9994  156.1294 C.3     1  UNL1        0.1635
     34 C         143.4103  142.9337  156.9035 C.3     1  UNL1        0.1247
     35 C         144.4177  142.0586  156.2183 C.2     1  UNL1        0.0673
     36 O         145.8621  142.4621  156.1847 O.co2   1  UNL1       -0.5477
     37 O         143.9807  140.7801  155.5668 O.co2   1  UNL1       -0.5477
@<TRIPOS>UNITY_ATOM_ATTR
36 1
charge -1
@<TRIPOS>BOND
     1    24    25    1
     2    25    23    1
     3    23    21    1
     4    21    22    2
     5    21     1    1
     6     1     2    2
     7     2    26    1
     8    26    27    1
     9    27    28    1
    10    28    29    1
    11    29    30    1
    12    29    31    1
    13    29    32    1
    14    32    33    1
    15    33    34    1
    16    34    35    1
    17    35    36   ar
    18    35    37   ar
    19     2     3    1
    20     3     4    1
    21     4    16    1
    22    16    17   ar
    23    17    18   ar
    24    18    19   ar
    25    19    20   ar
    26     4     5    2
    27     5     6    1
    28     6     8    1
    29     8     9   ar
    30     9    10   ar
    31    10    11   ar
    32    11    12    1
    33    11    13   ar
    34    13    14   ar
    35    14    15    1
    36     6     1    1
    37    14     8   ar
    38    34    27    1
    39    20    16   ar
    40     3     7    1
@<TRIPOS>MOLECULE
*****
 37 40 0 0 0
SMALL
GASTEIGER

@<TRIPOS>ATOM
      1 C         142.9090  140.4477  160.0854 C.2     1  UNL1        0.1397
      2 C         143.2291  139.4316  159.0294 C.2     1  UNL1        0.1355
      3 N         144.1688  139.7802  157.9135 N.pl3   1  UNL1       -0.1998
      4 C         144.7884  141.1448  157.8534 C.2     1  UNL1        0.3442
      5 N         144.4684  142.1609  158.9094 N.2     1  UNL1       -0.0580
      6 C         143.5287  141.8123  160.0254 C.3     1  UNL1        0.2692
      7 H         144.3788  139.1132  157.2204 H       1  UNL1        0.2983
      8 C         143.2087  142.8285  161.0814 C.ar    1  UNL1        0.0371
      9 C         142.0540  143.7674  160.8933 C.ar    1  UNL1        0.0030
     10 C         141.7340  144.7835  161.9492 C.ar    1  UNL1        0.0295
     11 C         142.5686  144.8608  163.1933 C.ar    1  UNL1        0.1406
     12 F         142.2486  145.8769  164.2492 F       1  UNL1       -0.2042
     13 C         143.7232  143.9219  163.3813 C.ar    1  UNL1        0.0362
     14 C         144.0433  142.9058  162.3253 C.ar    1  UNL1        0.0372
     15 BR        145.1979  141.9669  162.5134 Br      1  UNL1       -0.0491
     16 C         145.7281  141.4934  156.7374 C.ar    1  UNL1        0.1931
     17 N         146.8631  142.4712  156.8134 N.ar    1  UNL1       -0.2297
     18 C         147.5343  142.5075  155.4724 C.ar    1  UNL1        0.1067
     19 C         146.8142  141.5521  154.5677 C.ar    1  UNL1        0.0577
     20 S         145.6979  140.9254  155.3495 S.2     1  UNL1       -0.0586
     21 C         141.9693  140.0991  161.2014 C.2     1  UNL1        0.3447
     22 O         140.4999  140.3616  161.0541 O.2     1  UNL1       -0.2450
     23 O         142.4991  139.4880  162.4647 O.3     1  UNL1       -0.4455
     24 C         141.0100  137.4235  162.9848 C.3     1  UNL1        0.0513
     25 C         142.3596  138.0132  162.7002 C.3     1  UNL1        0.2089
     26 C         142.6094  138.0668  159.0894 C.3     1  UNL1        0.1407
     27 N         142.1383  137.4011  157.8306 N.3     1  UNL1       -0.2585
     28 C         142.9544  136.3058  157.2107 C.3     1  UNL1        0.1002
     29 C         142.4832  135.6400  155.9518 C.3     1  UNL1        0.1076
     30 C         142.4559  134.7133  154.7727 C.3     1  UNL1        0.0311
     31 C         143.7610  134.8886  156.1813 C.3     1  UNL1        0.0311
     32 O         141.1959  136.0695  155.3128 O.3     1  UNL1       -0.3553
     33 C         140.3798  137.1648  155.9327 C.3     1  UNL1        0.1635
     34 C         140.8509  137.8306  157.1916 C.3     1  UNL1        0.1247
     35 C         140.0347  138.9259  157.8114 C.2     1  UNL1        0.0673
     36 O         140.2505  140.3503  157.3936 O.co2   1  UNL1       -0.5477
     37 O         139.0028  138.5968  158.8491 O.co2   1  UNL1       -0.5477
@<TRIPOS>UNITY_ATOM_ATTR
36 1
charge -1
@<TRIPOS>BOND
     1    24    25    1
     2    25    23    1
     3    23    21    1
     4    21    22    2
     5    21     1    1
     6     1     2    2
     7     2    26    1
     8    26    27    1
     9    27    28    1
    10    28    29    1
    11    29    30    1
    12    29    31    1
    13    29    32    1
    14    32    33    1
    15    33    34    1
    16    34    35    1
    17    35    36   ar
    18    35    37   ar
    19     2     3    1
    20     3     4    1
    21     4    16    1
    22    16    17   ar
    23    17    18   ar
    24    18    19   ar
    25    19    20   ar
    26     4     5    2
    27     5     6    1
    28     6     8    1
    29     8     9   ar
    30     9    10   ar
    31    10    11   ar
    32    11    12    1
    33    11    13   ar
    34    13    14   ar
    35    14    15    1
    36     6     1    1
    37    14     8   ar
    38    34    27    1
    39    20    16   ar
    40     3     7    1
@<TRIPOS>MOLECULE
*****
 37 40 0 0 0
SMALL
GASTEIGER

@<TRIPOS>ATOM
      1 C         140.4835  141.1377  161.1110 C.2     1  UNL1        0.1397
      2 C         140.7149  140.3032  159.8862 C.2     1  UNL1        0.1355
      3 N         139.8064  140.4427  158.7008 N.pl3   1  UNL1       -0.1998
      4 C         138.6664  141.4168  158.7402 C.2     1  UNL1        0.3442
      5 N         138.4350  142.2513  159.9649 N.2     1  UNL1       -0.0580
      6 C         139.3435  142.1117  161.1503 C.3     1  UNL1        0.2692
      7 H         139.9584  139.8950  157.8970 H       1  UNL1        0.2983
      8 C         139.1119  142.9463  162.3750 C.ar    1  UNL1        0.0371
      9 C         139.8227  144.2576  162.5344 C.ar    1  UNL1        0.0030
     10 C         139.5912  145.0921  163.7591 C.ar    1  UNL1        0.0295
     11 C         138.6489  144.6154  164.8245 C.ar    1  UNL1        0.1406
     12 F         138.4174  145.4500  166.0492 F       1  UNL1       -0.2042
     13 C         137.9382  143.3041  164.6651 C.ar    1  UNL1        0.0362
     14 C         138.1697  142.4696  163.4403 C.ar    1  UNL1        0.0372
     15 BR        137.4590  141.1583  163.2810 Br      1  UNL1       -0.0491
     16 C         137.7579  141.5563  157.5548 C.ar    1  UNL1        0.1931
     17 N         136.7211  140.5647  157.1170 N.ar    1  UNL1       -0.2297
     18 C         136.0491  141.1076  155.8907 C.ar    1  UNL1        0.1067
     19 C         136.6706  142.4347  155.5706 C.ar    1  UNL1        0.0577
     20 S         137.7267  142.7120  156.5990 S.2     1  UNL1       -0.0586
     21 C         141.3920  140.9981  162.2963 C.2     1  UNL1        0.3447
     22 O         142.6966  141.7373  162.3325 O.2     1  UNL1       -0.2450
     23 O         140.9958  140.1193  163.4456 O.3     1  UNL1       -0.4455
     24 C         140.5102  137.6252  162.9038 C.3     1  UNL1        0.0513
     25 C         141.4158  138.6795  163.4682 C.3     1  UNL1        0.2089
     26 C         141.8550  139.3290  159.8469 C.3     1  UNL1        0.1407
     27 N         142.5762  139.0703  158.5574 N.3     1  UNL1       -0.2585
     28 C         142.5588  137.6987  157.9505 C.3     1  UNL1        0.1002
     29 C         143.2801  137.4399  156.6609 C.3     1  UNL1        0.1076
     30 C         143.8085  136.7061  155.4641 C.3     1  UNL1        0.0311
     31 C         142.7250  136.0722  156.9279 C.3     1  UNL1        0.0311
     32 O         144.0186  138.5528  155.9783 O.3     1  UNL1       -0.3553
     33 C         144.0360  139.9245  156.5852 C.3     1  UNL1        0.1635
     34 C         143.3148  140.1832  157.8747 C.3     1  UNL1        0.1247
     35 C         143.3321  141.5548  158.4816 C.2     1  UNL1        0.0673
     36 O         144.4211  141.9373  159.4397 O.co2   1  UNL1       -0.5477
     37 O         142.2606  142.5440  158.1304 O.co2   1  UNL1       -0.5477
@<TRIPOS>UNITY_ATOM_ATTR
36 1
charge -1
@<TRIPOS>BOND
     1    24    25    1
     2    25    23    1
     3    23    21    1
     4    21    22    2
     5    21     1    1
     6     1     2    2
     7     2    26    1
     8    26    27    1
     9    27    28    1
    10    28    29    1
    11    29    30    1
    12    29    31    1
    13    29    32    1
    14    32    33    1
    15    33    34    1
    16    34    35    1
    17    35    36   ar
    18    35    37   ar
    19     2     3    1
    20     3     4    1
    21     4    16    1
    22    16    17   ar
    23    17    18   ar
    24    18    19   ar
    25    19    20   ar
    26     4     5    2
    27     5     6    1
    28     6     8    1
    29     8     9   ar
    30     9    10   ar
    31    10    11   ar
    32    11    12    1
    33    11    13   ar
    34    13    14   ar
    35    14    15    1
    36     6     1    1
    37    14     8   ar
    38    34    27    1
    39    20    16   ar
    40     3     7    1
@<TRIPOS>MOLECULE
*****
 37 40 0 0 0
SMALL
GASTEIGER

@<TRIPOS>ATOM
      1 C         140.3706  141.3235  160.7010 C.2     1  UNL1        0.1397
      2 C         140.5934  140.5469  159.4372 C.2     1  UNL1        0.1355
      3 N         139.6268  140.6758  158.2974 N.pl3   1  UNL1       -0.1998
      4 C         138.4374  141.5812  158.4214 C.2     1  UNL1        0.3442
      5 N         138.2146  142.3578  159.6852 N.2     1  UNL1       -0.0580
      6 C         139.1812  142.2289  160.8250 C.3     1  UNL1        0.2692
      7 H         139.7731  140.1660  157.4679 H       1  UNL1        0.2983
      8 C         138.9583  143.0056  162.0888 C.ar    1  UNL1        0.0371
      9 C         138.1026  142.4333  163.1798 C.ar    1  UNL1        0.0030
     10 C         137.8797  143.2098  164.4435 C.ar    1  UNL1        0.0295
     11 C         138.5126  144.5588  164.6164 C.ar    1  UNL1        0.1406
     12 F         138.2897  145.3354  165.8802 F       1  UNL1       -0.2042
     13 C         139.3683  145.1311  163.5255 C.ar    1  UNL1        0.0362
     14 C         139.5911  144.3545  162.2616 C.ar    1  UNL1        0.0372
     15 BR        140.4469  144.9268  161.1707 Br      1  UNL1       -0.0491
     16 C         137.4709  141.7101  157.2816 C.ar    1  UNL1        0.1931
     17 N         136.4275  140.7052  156.8924 N.ar    1  UNL1       -0.2297
     18 C         135.6897  141.2406  155.7012 C.ar    1  UNL1        0.1067
     19 C         136.2772  142.5764  155.3540 C.ar    1  UNL1        0.0577
     20 S         137.3779  142.8666  156.3308 S.2     1  UNL1       -0.0586
     21 C         141.3371  141.1946  161.8408 C.2     1  UNL1        0.3447
     22 O         142.5982  142.0066  161.8502 O.2     1  UNL1       -0.2450
     23 O         141.0426  140.2536  162.9711 O.3     1  UNL1       -0.4455
     24 C         140.2911  137.8779  162.2353 C.3     1  UNL1        0.0513
     25 C         139.9668  139.2187  162.8246 C.3     1  UNL1        0.2089
     26 C         141.7828  139.6413  159.3131 C.3     1  UNL1        0.1407
     27 N         142.8240  139.9098  158.2672 N.3     1  UNL1       -0.2585
     28 C         143.7714  141.0612  158.4303 C.3     1  UNL1        0.1002
     29 C         144.8126  141.3297  157.3843 C.3     1  UNL1        0.1076
     30 C         145.9595  141.9837  156.6725 C.3     1  UNL1        0.0311
     31 C         145.1172  142.4398  158.3460 C.3     1  UNL1        0.0311
     32 O         144.9063  140.4467  156.1754 O.3     1  UNL1       -0.3553
     33 C         143.9589  139.2952  156.0124 C.3     1  UNL1        0.1635
     34 C         142.9177  139.0268  157.0583 C.3     1  UNL1        0.1247
     35 C         141.9703  137.8753  156.8952 C.2     1  UNL1        0.0673
     36 O         140.5444  138.1270  156.5033 O.co2   1  UNL1       -0.5477
     37 O         142.4487  136.4722  157.1241 O.co2   1  UNL1       -0.5477
@<TRIPOS>UNITY_ATOM_ATTR
36 1
charge -1
@<TRIPOS>BOND
     1    24    25    1
     2    25    23    1
     3    23    21    1
     4    21    22    2
     5    21     1    1
     6     1     2    2
     7     2    26    1
     8    26    27    1
     9    27    28    1
    10    28    29    1
    11    29    30    1
    12    29    31    1
    13    29    32    1
    14    32    33    1
    15    33    34    1
    16    34    35    1
    17    35    36   ar
    18    35    37   ar
    19     2     3    1
    20     3     4    1
    21     4    16    1
    22    16    17   ar
    23    17    18   ar
    24    18    19   ar
    25    19    20   ar
    26     4     5    2
    27     5     6    1
    28     6     8    1
    29     8     9   ar
    30     9    10   ar
    31    10    11   ar
    32    11    12    1
    33    11    13   ar
    34    13    14   ar
    35    14    15    1
    36     6     1    1
    37    14     8   ar
    38    34    27    1
    39    20    16   ar
    40     3     7    1
@<TRIPOS>MOLECULE
*****
 37 40 0 0 0
SMALL
GASTEIGER

@<TRIPOS>ATOM
      1 C         140.9334  140.8966  161.5187 C.2     1  UNL1        0.1397
      2 C         140.3890  141.2999  160.1805 C.2     1  UNL1        0.1355
      3 N         140.7404  140.5056  158.9575 N.pl3   1  UNL1       -0.1998
      4 C         141.6360  139.3080  159.0728 C.2     1  UNL1        0.3442
      5 N         142.1804  138.9046  160.4110 N.2     1  UNL1       -0.0580
      6 C         141.8291  139.6989  161.6340 C.3     1  UNL1        0.2692
      7 H         140.3831  140.7704  158.0792 H       1  UNL1        0.2983
      8 C         142.3735  139.2955  162.9723 C.ar    1  UNL1        0.0371
      9 C         141.5611  138.4195  163.8793 C.ar    1  UNL1        0.0030
     10 C         142.1054  138.0161  165.2175 C.ar    1  UNL1        0.0295
     11 C         143.4622  138.4887  165.6488 C.ar    1  UNL1        0.1406
     12 F         144.0065  138.0853  166.9871 F       1  UNL1       -0.2042
     13 C         144.2745  139.3648  164.7419 C.ar    1  UNL1        0.0362
     14 C         143.7301  139.7682  163.4035 C.ar    1  UNL1        0.0372
     15 BR        144.5424  140.6443  162.4966 Br      1  UNL1       -0.0491
     16 C         141.9874  138.5137  157.8498 C.ar    1  UNL1        0.1931
     17 N         143.3603  138.3522  157.2677 N.ar    1  UNL1       -0.2297
     18 C         143.2489  137.4801  156.0524 C.ar    1  UNL1        0.1067
     19 C         141.8071  137.1026  155.8833 C.ar    1  UNL1        0.0577
     20 S         141.0274  137.7414  156.9942 S.2     1  UNL1       -0.0586
     21 C         140.5821  141.6909  162.7417 C.2     1  UNL1        0.3447
     22 O         139.2703  141.4633  163.4326 O.2     1  UNL1       -0.2450
     23 O         141.5425  142.7129  163.2737 O.3     1  UNL1       -0.4455
     24 C         142.3178  142.3365  165.7247 C.3     1  UNL1        0.0513
     25 C         141.5013  143.0980  164.7228 C.3     1  UNL1        0.2089
     26 C         139.4933  142.4977  160.0651 C.3     1  UNL1        0.1407
     27 N         139.6897  143.4760  158.9452 N.3     1  UNL1       -0.2585
     28 C         139.0154  143.2496  157.6246 C.3     1  UNL1        0.1002
     29 C         139.2118  144.2281  156.5047 C.3     1  UNL1        0.1076
     30 C         139.0912  144.8648  155.1519 C.3     1  UNL1        0.0311
     31 C         138.2992  143.2444  155.8342 C.3     1  UNL1        0.0311
     32 O         140.0826  145.4328  156.7054 O.3     1  UNL1       -0.3553
     33 C         140.7569  145.6592  158.0260 C.3     1  UNL1        0.1635
     34 C         140.5605  144.6808  159.1459 C.3     1  UNL1        0.1247
     35 C         141.2349  144.9072  160.4665 C.2     1  UNL1        0.0673
     36 O         140.5201  145.6504  161.5560 O.co2   1  UNL1       -0.5477
     37 O         142.6239  144.3904  160.6977 O.co2   1  UNL1       -0.5477
@<TRIPOS>UNITY_ATOM_ATTR
36 1
charge -1
@<TRIPOS>BOND
     1    24    25    1
     2    25    23    1
     3    23    21    1
     4    21    22    2
     5    21     1    1
     6     1     2    2
     7     2    26    1
     8    26    27    1
     9    27    28    1
    10    28    29    1
    11    29    30    1
    12    29    31    1
    13    29    32    1
    14    32    33    1
    15    33    34    1
    16    34    35    1
    17    35    36   ar
    18    35    37   ar
    19     2     3    1
    20     3     4    1
    21     4    16    1
    22    16    17   ar
    23    17    18   ar
    24    18    19   ar
    25    19    20   ar
    26     4     5    2
    27     5     6    1
    28     6     8    1
    29     8     9   ar
    30     9    10   ar
    31    10    11   ar
    32    11    12    1
    33    11    13   ar
    34    13    14   ar
    35    14    15    1
    36     6     1    1
    37    14     8   ar
    38    34    27    1
    39    20    16   ar
    40     3     7    1
@<TRIPOS>MOLECULE
*****
 37 40 0 0 0
SMALL
GASTEIGER

@<TRIPOS>ATOM
      1 C         141.7011  143.3271  160.3600 C.2     1  UNL1        0.1397
      2 C         142.5105  143.3345  159.0972 C.2     1  UNL1        0.1355
      3 N         142.0945  144.1999  157.9448 N.pl3   1  UNL1       -0.1998
      4 C         140.8691  145.0578  158.0552 C.2     1  UNL1        0.3442
      5 N         140.0597  145.0505  159.3180 N.2     1  UNL1       -0.0580
      6 C         140.4757  144.1851  160.4704 C.3     1  UNL1        0.2692
      7 H         142.6258  144.2047  157.1159 H       1  UNL1        0.2983
      8 C         139.6662  144.1778  161.7333 C.ar    1  UNL1        0.0371
      9 C         140.0071  145.1216  162.8481 C.ar    1  UNL1        0.0030
     10 C         139.1977  145.1143  164.1110 C.ar    1  UNL1        0.0295
     11 C         138.0473  144.1632  164.2590 C.ar    1  UNL1        0.1406
     12 F         137.2379  144.1559  165.5218 F       1  UNL1       -0.2042
     13 C         137.7064  143.2193  163.1441 C.ar    1  UNL1        0.0362
     14 C         138.5158  143.2266  161.8813 C.ar    1  UNL1        0.0372
     15 BR        138.1749  142.2828  160.7664 Br      1  UNL1       -0.0491
     16 C         140.4531  145.9232  156.9027 C.ar    1  UNL1        0.1931
     17 N         139.3930  146.9839  156.9342 N.ar    1  UNL1       -0.2297
     18 C         139.3089  147.5960  155.5674 C.ar    1  UNL1        0.1067
     19 C         140.3171  146.9136  154.6911 C.ar    1  UNL1        0.0577
     20 S         141.0242  145.8798  155.5164 S.2     1  UNL1       -0.0586
     21 C         142.1171  142.4618  161.5125 C.2     1  UNL1        0.3447
     22 O         143.2103  142.9147  162.4342 O.2     1  UNL1       -0.2450
     23 O         141.4398  141.1435  161.7433 O.3     1  UNL1       -0.4455
     24 C         140.6504  141.2808  164.2147 C.3     1  UNL1        0.0513
     25 C         141.3855  140.5597  163.1239 C.3     1  UNL1        0.2089
     26 C         143.7360  142.4765  158.9868 C.3     1  UNL1        0.1407
     27 N         143.6732  141.1702  158.2522 N.3     1  UNL1       -0.2585
     28 C         143.0956  139.9594  158.9233 C.3     1  UNL1        0.1002
     29 C         143.0329  138.6530  158.1886 C.3     1  UNL1        0.1076
     30 C         142.7582  137.2053  157.9085 C.3     1  UNL1        0.0311
     31 C         142.4227  138.2457  159.4970 C.3     1  UNL1        0.0311
     32 O         143.5477  138.5576  156.7830 O.3     1  UNL1       -0.3553
     33 C         144.1253  139.7684  156.1120 C.3     1  UNL1        0.1635
     34 C         144.1880  141.0747  156.8465 C.3     1  UNL1        0.1247
     35 C         144.7656  142.2855  156.1755 C.2     1  UNL1        0.0673
     36 O         143.8579  143.2875  155.5257 O.co2   1  UNL1       -0.5477
     37 O         146.2508  142.4944  156.1542 O.co2   1  UNL1       -0.5477
@<TRIPOS>UNITY_ATOM_ATTR
36 1
charge -1
@<TRIPOS>BOND
     1    24    25    1
     2    25    23    1
     3    23    21    1
     4    21    22    2
     5    21     1    1
     6     1     2    2
     7     2    26    1
     8    26    27    1
     9    27    28    1
    10    28    29    1
    11    29    30    1
    12    29    31    1
    13    29    32    1
    14    32    33    1
    15    33    34    1
    16    34    35    1
    17    35    36   ar
    18    35    37   ar
    19     2     3    1
    20     3     4    1
    21     4    16    1
    22    16    17   ar
    23    17    18   ar
    24    18    19   ar
    25    19    20   ar
    26     4     5    2
    27     5     6    1
    28     6     8    1
    29     8     9   ar
    30     9    10   ar
    31    10    11   ar
    32    11    12    1
    33    11    13   ar
    34    13    14   ar
    35    14    15    1
    36     6     1    1
    37    14     8   ar
    38    34    27    1
    39    20    16   ar
    40     3     7    1
