@<TRIPOS>MOLECULE
*****
 29 32 0 0 0
SMALL
GASTEIGER

@<TRIPOS>ATOM
      1 O         140.7512  136.9460  162.9185 O.2     1  UNL1       -0.2668
      2 C         140.3445  138.3643  163.1881 C.2     1  UNL1        0.2806
      3 N         140.3031  139.3590  162.0661 N.am    1  UNL1       -0.2999
      4 H         140.0362  140.2899  162.2431 H       1  UNL1        0.1498
      5 C         139.9790  138.7881  164.5799 C.ar    1  UNL1        0.2014
      6 C         138.7638  138.2123  165.2444 C.ar    1  UNL1        0.0843
      7 C         138.3983  138.6360  166.6361 C.ar    1  UNL1        0.2018
      8 O         137.1830  138.0602  167.3007 O.2     1  UNL1       -0.2864
      9 C         139.2481  139.6355  167.3634 C.ar    1  UNL1        0.0737
     10 C         138.8827  140.0592  168.7551 C.ar    1  UNL1        0.0085
     11 C         139.7325  141.0587  169.4822 C.ar    1  UNL1        0.0299
     12 C         140.9477  141.6345  168.8177 C.ar    1  UNL1        0.1432
     13 F         141.7975  142.6341  169.5450 F       1  UNL1       -0.2041
     14 C         141.3132  141.2108  167.4260 C.ar    1  UNL1        0.0672
     15 C         140.4634  140.2113  166.6989 C.ar    1  UNL1        0.1508
     16 O         140.8288  139.7876  165.3071 O.2     1  UNL1       -0.4486
     17 C         140.6686  138.9353  160.6744 C.3     1  UNL1        0.0747
     18 C         139.5914  138.6212  159.6789 C.3     1  UNL1        0.0369
     19 C         139.9568  138.1975  158.2871 C.3     1  UNL1        0.0741
     20 N         141.3995  138.0879  157.8909 N.3     1  UNL1       -0.2689
     21 C         142.4766  138.4020  158.8865 C.3     1  UNL1        0.0741
     22 C         142.1111  138.8257  160.2782 C.3     1  UNL1        0.0369
     23 C         141.7649  137.6642  156.4992 C.3     1  UNL1        0.0991
     24 C         142.0419  136.2200  156.2032 C.ar    1  UNL1       -0.0061
     25 C         143.2675  135.5613  156.7636 C.ar    1  UNL1       -0.0029
     26 C         143.5445  134.1171  156.4676 C.ar    1  UNL1       -0.0003
     27 C         142.5960  133.3317  155.6113 C.ar    1  UNL1       -0.0000
     28 C         141.3704  133.9904  155.0510 C.ar    1  UNL1       -0.0003
     29 C         141.0934  135.4346  155.3469 C.ar    1  UNL1       -0.0029
@<TRIPOS>BOND
     1     1     2    2
     2     2     3   am
     3     3    17    1
     4    17    18    1
     5    18    19    1
     6    19    20    1
     7    20    23    1
     8    23    24    1
     9    24    25   ar
    10    25    26   ar
    11    26    27   ar
    12    27    28   ar
    13    28    29   ar
    14    20    21    1
    15    21    22    1
    16     2     5    1
    17     5     6   ar
    18     6     7   ar
    19     7     8    2
    20     7     9   ar
    21     9    10   ar
    22    10    11   ar
    23    11    12   ar
    24    12    13    1
    25    12    14   ar
    26    14    15   ar
    27    15    16   ar
    28    22    17    1
    29    16     5   ar
    30    29    24   ar
    31    15     9   ar
    32     3     4    1
@<TRIPOS>MOLECULE
*****
 29 32 0 0 0
SMALL
GASTEIGER

@<TRIPOS>ATOM
      1 O         142.2945  139.0260  158.4959 O.2     1  UNL1       -0.2668
      2 C         142.6304  137.5879  158.7585 C.2     1  UNL1        0.2806
      3 N         143.0845  137.1608  160.1229 N.am    1  UNL1       -0.2999
      4 H         143.3050  136.2169  160.2952 H       1  UNL1        0.1498
      5 C         142.5124  136.5768  157.6567 C.ar    1  UNL1        0.2014
      6 C         141.5299  136.7916  156.5438 C.ar    1  UNL1        0.0843
      7 C         141.4118  135.7807  155.4420 C.ar    1  UNL1        0.2018
      8 O         140.4294  135.9955  154.3291 O.2     1  UNL1       -0.2864
      9 C         142.2763  134.5548  155.4531 C.ar    1  UNL1        0.0737
     10 C         142.1582  133.5438  154.3514 C.ar    1  UNL1        0.0085
     11 C         143.0226  132.3180  154.3625 C.ar    1  UNL1        0.0299
     12 C         144.0051  132.1032  155.4755 C.ar    1  UNL1        0.1432
     13 F         144.8695  130.8773  155.4866 F       1  UNL1       -0.2041
     14 C         144.1231  133.1141  156.5772 C.ar    1  UNL1        0.0672
     15 C         143.2587  134.3399  156.5661 C.ar    1  UNL1        0.1508
     16 O         143.3768  135.3510  157.6679 O.2     1  UNL1       -0.4486
     17 C         143.2025  138.1717  161.2246 C.3     1  UNL1        0.0747
     18 C         144.2386  139.2533  161.1423 C.3     1  UNL1        0.0369
     19 C         144.3567  140.2642  162.2441 C.3     1  UNL1        0.0741
     20 N         143.4386  140.1937  163.4283 N.3     1  UNL1       -0.2689
     21 C         142.4025  139.1122  163.5106 C.3     1  UNL1        0.0741
     22 C         142.2845  138.1012  162.4087 C.3     1  UNL1        0.0369
     23 C         143.5567  141.2047  164.5300 C.3     1  UNL1        0.0991
     24 C         143.0877  142.6123  164.3097 C.ar    1  UNL1       -0.0061
     25 C         141.6196  142.9188  164.2861 C.ar    1  UNL1       -0.0029
     26 C         141.1507  144.3265  164.0658 C.ar    1  UNL1       -0.0003
     27 C         142.1499  145.4277  163.8690 C.ar    1  UNL1       -0.0000
     28 C         143.6181  145.1213  163.8926 C.ar    1  UNL1       -0.0003
     29 C         144.0870  143.7136  164.1130 C.ar    1  UNL1       -0.0029
@<TRIPOS>BOND
     1     1     2    2
     2     2     3   am
     3     3    17    1
     4    17    18    1
     5    18    19    1
     6    19    20    1
     7    20    23    1
     8    23    24    1
     9    24    25   ar
    10    25    26   ar
    11    26    27   ar
    12    27    28   ar
    13    28    29   ar
    14    20    21    1
    15    21    22    1
    16     2     5    1
    17     5     6   ar
    18     6     7   ar
    19     7     8    2
    20     7     9   ar
    21     9    10   ar
    22    10    11   ar
    23    11    12   ar
    24    12    13    1
    25    12    14   ar
    26    14    15   ar
    27    15    16   ar
    28    22    17    1
    29    16     5   ar
    30    29    24   ar
    31    15     9   ar
    32     3     4    1
@<TRIPOS>MOLECULE
*****
 29 32 0 0 0
SMALL
GASTEIGER

@<TRIPOS>ATOM
      1 O         138.9051  144.8524  161.7049 O.2     1  UNL1       -0.2668
      2 C         139.7723  143.6299  161.7645 C.2     1  UNL1        0.2806
      3 N         140.4787  143.1507  160.5311 N.am    1  UNL1       -0.2999
      4 H         141.0478  142.3483  160.5702 H       1  UNL1        0.1498
      5 C         139.9331  142.8866  163.0575 C.ar    1  UNL1        0.2014
      6 C         141.0866  143.1995  163.9639 C.ar    1  UNL1        0.0843
      7 C         141.2474  142.4563  165.2569 C.ar    1  UNL1        0.2018
      8 O         142.4009  142.7692  166.1633 O.2     1  UNL1       -0.2864
      9 C         140.2548  141.4002  165.6434 C.ar    1  UNL1        0.0737
     10 C         140.4156  140.6570  166.9364 C.ar    1  UNL1        0.0085
     11 C         139.4230  139.6009  167.3228 C.ar    1  UNL1        0.0299
     12 C         138.2695  139.2881  166.4164 C.ar    1  UNL1        0.1432
     13 F         137.2769  138.2319  166.8029 F       1  UNL1       -0.2041
     14 C         138.1087  140.0313  165.1234 C.ar    1  UNL1        0.0672
     15 C         139.1013  141.0873  164.7370 C.ar    1  UNL1        0.1508
     16 O         138.9405  141.8306  163.4440 O.2     1  UNL1       -0.4486
     17 C         140.3179  143.8938  159.2381 C.3     1  UNL1        0.0747
     18 C         141.1051  145.1463  158.9901 C.3     1  UNL1        0.0369
     19 C         140.9444  145.8895  157.6971 C.3     1  UNL1        0.0741
     20 N         139.9963  145.3802  156.6521 N.3     1  UNL1       -0.2689
     21 C         139.2091  144.1277  156.9002 C.3     1  UNL1        0.0741
     22 C         139.3699  143.3845  158.1932 C.3     1  UNL1        0.0369
     23 C         139.8356  146.1234  155.3592 C.3     1  UNL1        0.0991
     24 C         139.4916  147.5834  155.3710 C.ar    1  UNL1       -0.0061
     25 C         139.9443  148.4698  154.2489 C.ar    1  UNL1       -0.0029
     26 C         139.6003  149.9297  154.2607 C.ar    1  UNL1       -0.0003
     27 C         138.8036  150.5034  155.3948 C.ar    1  UNL1       -0.0000
     28 C         138.3509  149.6170  156.5170 C.ar    1  UNL1       -0.0003
     29 C         138.6949  148.1570  156.5051 C.ar    1  UNL1       -0.0029
@<TRIPOS>BOND
     1     1     2    2
     2     2     3   am
     3     3    17    1
     4    17    18    1
     5    18    19    1
     6    19    20    1
     7    20    23    1
     8    23    24    1
     9    24    25   ar
    10    25    26   ar
    11    26    27   ar
    12    27    28   ar
    13    28    29   ar
    14    20    21    1
    15    21    22    1
    16     2     5    1
    17     5     6   ar
    18     6     7   ar
    19     7     8    2
    20     7     9   ar
    21     9    10   ar
    22    10    11   ar
    23    11    12   ar
    24    12    13    1
    25    12    14   ar
    26    14    15   ar
    27    15    16   ar
    28    22    17    1
    29    16     5   ar
    30    29    24   ar
    31    15     9   ar
    32     3     4    1
@<TRIPOS>MOLECULE
*****
 29 32 0 0 0
SMALL
GASTEIGER

@<TRIPOS>ATOM
      1 O         139.5724  146.1588  160.7306 O.2     1  UNL1       -0.2668
      2 C         140.1920  144.8414  161.0919 C.2     1  UNL1        0.2806
      3 N         140.8006  143.9810  160.0245 N.am    1  UNL1       -0.2999
      4 H         141.2072  143.1163  160.2616 H       1  UNL1        0.1498
      5 C         140.2030  144.3843  162.5206 C.ar    1  UNL1        0.2014
      6 C         139.2686  145.0078  163.5147 C.ar    1  UNL1        0.0843
      7 C         139.2796  144.5508  164.9433 C.ar    1  UNL1        0.2018
      8 O         138.3452  145.1743  165.9374 O.2     1  UNL1       -0.2864
      9 C         140.2251  143.4703  165.3779 C.ar    1  UNL1        0.0737
     10 C         140.2361  143.0134  166.8065 C.ar    1  UNL1        0.0085
     11 C         141.1814  141.9329  167.2410 C.ar    1  UNL1        0.0299
     12 C         142.1158  141.3095  166.2469 C.ar    1  UNL1        0.1432
     13 F         143.0613  140.2290  166.6815 F       1  UNL1       -0.2041
     14 C         142.1048  141.7664  164.8183 C.ar    1  UNL1        0.0672
     15 C         141.1594  142.8469  164.3838 C.ar    1  UNL1        0.1508
     16 O         141.1484  143.3039  162.9551 O.2     1  UNL1       -0.4486
     17 C         140.7895  144.4379  158.5959 C.3     1  UNL1        0.0747
     18 C         141.8978  145.3056  158.0774 C.3     1  UNL1        0.0369
     19 C         141.8868  145.7626  156.6488 C.3     1  UNL1        0.0741
     20 N         140.7675  145.3519  155.7385 N.3     1  UNL1       -0.2689
     21 C         139.6592  144.4842  156.2570 C.3     1  UNL1        0.0741
     22 C         139.6702  144.0272  157.6857 C.3     1  UNL1        0.0369
     23 C         140.7565  145.8088  154.3099 C.3     1  UNL1        0.0991
     24 C         140.4313  147.2358  153.9814 C.ar    1  UNL1       -0.0061
     25 C         139.6106  148.0560  154.9320 C.ar    1  UNL1       -0.0029
     26 C         139.2855  149.4831  154.6035 C.ar    1  UNL1       -0.0003
     27 C         139.7811  150.0899  153.3244 C.ar    1  UNL1       -0.0000
     28 C         140.6018  149.2697  152.3738 C.ar    1  UNL1       -0.0003
     29 C         140.9270  147.8427  152.7023 C.ar    1  UNL1       -0.0029
@<TRIPOS>BOND
     1     1     2    2
     2     2     3   am
     3     3    17    1
     4    17    18    1
     5    18    19    1
     6    19    20    1
     7    20    23    1
     8    23    24    1
     9    24    25   ar
    10    25    26   ar
    11    26    27   ar
    12    27    28   ar
    13    28    29   ar
    14    20    21    1
    15    21    22    1
    16     2     5    1
    17     5     6   ar
    18     6     7   ar
    19     7     8    2
    20     7     9   ar
    21     9    10   ar
    22    10    11   ar
    23    11    12   ar
    24    12    13    1
    25    12    14   ar
    26    14    15   ar
    27    15    16   ar
    28    22    17    1
    29    16     5   ar
    30    29    24   ar
    31    15     9   ar
    32     3     4    1
@<TRIPOS>MOLECULE
*****
 29 32 0 0 0
SMALL
GASTEIGER

@<TRIPOS>ATOM
      1 O         140.7256  140.1642  162.6493 O.2     1  UNL1       -0.2668
      2 C         141.9738  139.8915  163.4352 C.2     1  UNL1        0.2806
      3 N         143.2021  139.3838  162.7398 N.am    1  UNL1       -0.2999
      4 H         144.0213  139.2048  163.2557 H       1  UNL1        0.1498
      5 C         141.9936  140.1265  164.9166 C.ar    1  UNL1        0.2014
      6 C         142.6628  139.1371  165.8240 C.ar    1  UNL1        0.0843
      7 C         142.6827  139.3720  167.3053 C.ar    1  UNL1        0.2018
      8 O         143.3518  138.3826  168.2127 O.2     1  UNL1       -0.2864
      9 C         142.0334  140.5964  167.8793 C.ar    1  UNL1        0.0737
     10 C         142.0533  140.8314  169.3606 C.ar    1  UNL1        0.0085
     11 C         141.4041  142.0557  169.9346 C.ar    1  UNL1        0.0299
     12 C         140.7350  143.0451  169.0272 C.ar    1  UNL1        0.1432
     13 F         140.0857  144.2695  169.6012 F       1  UNL1       -0.2041
     14 C         140.7151  142.8102  167.5459 C.ar    1  UNL1        0.0672
     15 C         141.3643  141.5858  166.9719 C.ar    1  UNL1        0.1508
     16 O         141.3444  141.3508  165.4905 O.2     1  UNL1       -0.4486
     17 C         143.1822  139.1488  161.2585 C.3     1  UNL1        0.0747
     18 C         142.6266  137.8682  160.7097 C.3     1  UNL1        0.0369
     19 C         142.6068  137.6332  159.2284 C.3     1  UNL1        0.0741
     20 N         143.1426  138.6788  158.2958 N.3     1  UNL1       -0.2689
     21 C         143.6983  139.9594  158.8447 C.3     1  UNL1        0.0741
     22 C         143.7181  140.1944  160.3261 C.3     1  UNL1        0.0369
     23 C         143.1228  138.4438  156.8145 C.3     1  UNL1        0.0991
     24 C         142.7963  137.0827  156.2754 C.ar    1  UNL1       -0.0061
     25 C         143.8781  136.0536  156.1318 C.ar    1  UNL1       -0.0029
     26 C         143.5517  134.6924  155.5927 C.ar    1  UNL1       -0.0003
     27 C         142.1435  134.3603  155.1971 C.ar    1  UNL1       -0.0000
     28 C         141.0617  135.3894  155.3406 C.ar    1  UNL1       -0.0003
     29 C         141.3881  136.7506  155.8797 C.ar    1  UNL1       -0.0029
@<TRIPOS>BOND
     1     1     2    2
     2     2     3   am
     3     3    17    1
     4    17    18    1
     5    18    19    1
     6    19    20    1
     7    20    23    1
     8    23    24    1
     9    24    25   ar
    10    25    26   ar
    11    26    27   ar
    12    27    28   ar
    13    28    29   ar
    14    20    21    1
    15    21    22    1
    16     2     5    1
    17     5     6   ar
    18     6     7   ar
    19     7     8    2
    20     7     9   ar
    21     9    10   ar
    22    10    11   ar
    23    11    12   ar
    24    12    13    1
    25    12    14   ar
    26    14    15   ar
    27    15    16   ar
    28    22    17    1
    29    16     5   ar
    30    29    24   ar
    31    15     9   ar
    32     3     4    1
@<TRIPOS>MOLECULE
*****
 29 32 0 0 0
SMALL
GASTEIGER

@<TRIPOS>ATOM
      1 O         141.0118  142.8317  159.4490 O.2     1  UNL1       -0.2668
      2 C         140.3268  144.1648  159.3880 C.2     1  UNL1        0.2806
      3 N         139.6366  144.7096  160.6032 N.am    1  UNL1       -0.2999
      4 H         139.1870  145.5846  160.5631 H       1  UNL1        0.1498
      5 C         140.3320  144.9530  158.1118 C.ar    1  UNL1        0.2014
      6 C         141.0753  144.4378  156.9151 C.ar    1  UNL1        0.0843
      7 C         141.0805  145.2259  155.6389 C.ar    1  UNL1        0.2018
      8 O         141.8239  144.7107  154.4422 O.2     1  UNL1       -0.2864
      9 C         140.3424  146.5293  155.5593 C.ar    1  UNL1        0.0737
     10 C         140.3476  147.3175  154.2831 C.ar    1  UNL1        0.0085
     11 C         139.6095  148.6208  154.2035 C.ar    1  UNL1        0.0299
     12 C         138.8661  149.1360  155.4002 C.ar    1  UNL1        0.1432
     13 F         138.1280  150.4395  155.3206 F       1  UNL1       -0.2041
     14 C         138.8609  148.3479  156.6764 C.ar    1  UNL1        0.0672
     15 C         139.5990  147.0445  156.7559 C.ar    1  UNL1        0.1508
     16 O         139.5938  146.2563  158.0322 O.2     1  UNL1       -0.4486
     17 C         139.6314  143.9215  161.8794 C.3     1  UNL1        0.0747
     18 C         138.3941  143.1862  162.3018 C.3     1  UNL1        0.0369
     19 C         138.3888  142.3980  163.5780 C.3     1  UNL1        0.0741
     20 N         139.6210  142.3452  164.4319 N.3     1  UNL1       -0.2689
     21 C         140.8583  143.0806  164.0096 C.3     1  UNL1        0.0741
     22 C         140.8634  143.8687  162.7333 C.3     1  UNL1        0.0369
     23 C         139.6158  141.5571  165.7081 C.3     1  UNL1        0.0991
     24 C         139.2417  140.1046  165.6911 C.ar    1  UNL1       -0.0061
     25 C         138.1963  139.5882  166.6348 C.ar    1  UNL1       -0.0029
     26 C         137.8223  138.1357  166.6178 C.ar    1  UNL1       -0.0003
     27 C         138.4935  137.1996  165.6571 C.ar    1  UNL1       -0.0000
     28 C         139.5389  137.7159  164.7134 C.ar    1  UNL1       -0.0003
     29 C         139.9129  139.1684  164.7304 C.ar    1  UNL1       -0.0029
@<TRIPOS>BOND
     1     1     2    2
     2     2     3   am
     3     3    17    1
     4    17    18    1
     5    18    19    1
     6    19    20    1
     7    20    23    1
     8    23    24    1
     9    24    25   ar
    10    25    26   ar
    11    26    27   ar
    12    27    28   ar
    13    28    29   ar
    14    20    21    1
    15    21    22    1
    16     2     5    1
    17     5     6   ar
    18     6     7   ar
    19     7     8    2
    20     7     9   ar
    21     9    10   ar
    22    10    11   ar
    23    11    12   ar
    24    12    13    1
    25    12    14   ar
    26    14    15   ar
    27    15    16   ar
    28    22    17    1
    29    16     5   ar
    30    29    24   ar
    31    15     9   ar
    32     3     4    1
@<TRIPOS>MOLECULE
*****
 29 32 0 0 0
SMALL
GASTEIGER

@<TRIPOS>ATOM
      1 O         137.0409  141.5260  162.5462 O.2     1  UNL1       -0.2668
      2 C         138.3986  141.0249  162.9406 C.2     1  UNL1        0.2806
      3 N         139.4311  140.7489  161.8882 N.am    1  UNL1       -0.2999
      4 H         140.3222  140.4201  162.1471 H       1  UNL1        0.1498
      5 C         138.7237  140.7997  164.3876 C.ar    1  UNL1        0.2014
      6 C         138.1371  139.6258  165.1142 C.ar    1  UNL1        0.0843
      7 C         138.4622  139.4006  166.5611 C.ar    1  UNL1        0.2018
      8 O         137.8756  138.2267  167.2877 O.2     1  UNL1       -0.2864
      9 C         139.3740  140.3492  167.2815 C.ar    1  UNL1        0.0737
     10 C         139.6991  140.1240  168.7284 C.ar    1  UNL1        0.0085
     11 C         140.6108  141.0726  169.4486 C.ar    1  UNL1        0.0299
     12 C         141.1974  142.2465  168.7220 C.ar    1  UNL1        0.1432
     13 F         142.1091  143.1951  169.4424 F       1  UNL1       -0.2041
     14 C         140.8723  142.4717  167.2752 C.ar    1  UNL1        0.0672
     15 C         139.9606  141.5231  166.5549 C.ar    1  UNL1        0.1508
     16 O         139.6354  141.7483  165.1079 O.2     1  UNL1       -0.4486
     17 C         139.1061  140.9741  160.4413 C.3     1  UNL1        0.0747
     18 C         139.1826  139.8343  159.4692 C.3     1  UNL1        0.0369
     19 C         138.8576  140.0595  158.0223 C.3     1  UNL1        0.0741
     20 N         138.4559  141.4245  157.5474 N.3     1  UNL1       -0.2689
     21 C         138.3793  142.5643  158.5195 C.3     1  UNL1        0.0741
     22 C         138.7044  142.3391  159.9665 C.3     1  UNL1        0.0369
     23 C         138.1308  141.6497  156.1005 C.3     1  UNL1        0.0991
     24 C         136.7334  141.4277  155.6024 C.ar    1  UNL1       -0.0061
     25 C         135.7080  140.8010  156.4999 C.ar    1  UNL1       -0.0029
     26 C         134.3106  140.5790  156.0018 C.ar    1  UNL1       -0.0003
     27 C         133.9388  140.9837  154.6061 C.ar    1  UNL1       -0.0000
     28 C         134.9642  141.6103  153.7086 C.ar    1  UNL1       -0.0003
     29 C         136.3616  141.8324  154.2067 C.ar    1  UNL1       -0.0029
@<TRIPOS>BOND
     1     1     2    2
     2     2     3   am
     3     3    17    1
     4    17    18    1
     5    18    19    1
     6    19    20    1
     7    20    23    1
     8    23    24    1
     9    24    25   ar
    10    25    26   ar
    11    26    27   ar
    12    27    28   ar
    13    28    29   ar
    14    20    21    1
    15    21    22    1
    16     2     5    1
    17     5     6   ar
    18     6     7   ar
    19     7     8    2
    20     7     9   ar
    21     9    10   ar
    22    10    11   ar
    23    11    12   ar
    24    12    13    1
    25    12    14   ar
    26    14    15   ar
    27    15    16   ar
    28    22    17    1
    29    16     5   ar
    30    29    24   ar
    31    15     9   ar
    32     3     4    1
@<TRIPOS>MOLECULE
*****
 29 32 0 0 0
SMALL
GASTEIGER

@<TRIPOS>ATOM
      1 O         141.1394  138.4878  159.7088 O.2     1  UNL1       -0.2668
      2 C         142.3891  138.1306  158.9601 C.2     1  UNL1        0.2806
      3 N         143.6881  138.7945  159.3091 N.am    1  UNL1       -0.2999
      4 H         144.5084  138.5600  158.8177 H       1  UNL1        0.1498
      5 C         142.3399  137.1093  157.8625 C.ar    1  UNL1        0.2014
      6 C         141.4000  137.2938  156.7081 C.ar    1  UNL1        0.0843
      7 C         141.3507  136.2727  155.6105 C.ar    1  UNL1        0.2018
      8 O         140.4108  136.4571  154.4561 O.2     1  UNL1       -0.2864
      9 C         142.2414  135.0670  155.6672 C.ar    1  UNL1        0.0737
     10 C         142.1921  134.0458  154.5696 C.ar    1  UNL1        0.0085
     11 C         143.0828  132.8403  154.6264 C.ar    1  UNL1        0.0299
     12 C         144.0227  132.6558  155.7807 C.ar    1  UNL1        0.1432
     13 F         144.9133  131.4501  155.8375 F       1  UNL1       -0.2041
     14 C         144.0719  133.6769  156.8784 C.ar    1  UNL1        0.0672
     15 C         143.1813  134.8825  156.8216 C.ar    1  UNL1        0.1508
     16 O         143.2305  135.9038  157.9193 O.2     1  UNL1       -0.4486
     17 C         143.7374  139.8157  160.4067 C.3     1  UNL1        0.0747
     18 C         143.9553  139.3815  161.8258 C.3     1  UNL1        0.0369
     19 C         144.0046  140.4027  162.9234 C.3     1  UNL1        0.0741
     20 N         143.8360  141.8581  162.6019 N.3     1  UNL1       -0.2689
     21 C         143.6181  142.2923  161.1827 C.3     1  UNL1        0.0741
     22 C         143.5688  141.2710  160.0851 C.3     1  UNL1        0.0369
     23 C         143.8852  142.8793  163.6994 C.3     1  UNL1        0.0991
     24 C         142.9552  142.7667  164.8709 C.ar    1  UNL1       -0.0061
     25 C         141.5099  143.1383  164.7196 C.ar    1  UNL1       -0.0029
     26 C         140.5799  143.0257  165.8911 C.ar    1  UNL1       -0.0003
     27 C         141.0952  142.5415  167.2139 C.ar    1  UNL1       -0.0000
     28 C         142.5405  142.1699  167.3653 C.ar    1  UNL1       -0.0003
     29 C         143.4705  142.2825  166.1938 C.ar    1  UNL1       -0.0029
@<TRIPOS>BOND
     1     1     2    2
     2     2     3   am
     3     3    17    1
     4    17    18    1
     5    18    19    1
     6    19    20    1
     7    20    23    1
     8    23    24    1
     9    24    25   ar
    10    25    26   ar
    11    26    27   ar
    12    27    28   ar
    13    28    29   ar
    14    20    21    1
    15    21    22    1
    16     2     5    1
    17     5     6   ar
    18     6     7   ar
    19     7     8    2
    20     7     9   ar
    21     9    10   ar
    22    10    11   ar
    23    11    12   ar
    24    12    13    1
    25    12    14   ar
    26    14    15   ar
    27    15    16   ar
    28    22    17    1
    29    16     5   ar
    30    29    24   ar
    31    15     9   ar
    32     3     4    1
@<TRIPOS>MOLECULE
*****
 29 32 0 0 0
SMALL
GASTEIGER

@<TRIPOS>ATOM
      1 O         143.2117  141.9445  159.6194 O.2     1  UNL1       -0.2668
      2 C         143.7695  141.0482  158.5539 C.2     1  UNL1        0.2806
      3 N         143.6972  139.5584  158.7133 N.am    1  UNL1       -0.2999
      4 H         144.0633  138.9702  158.0139 H       1  UNL1        0.1498
      5 C         144.3997  141.6417  157.3288 C.ar    1  UNL1        0.2014
      6 C         143.5596  142.4049  156.3481 C.ar    1  UNL1        0.0843
      7 C         144.1897  142.9983  155.1231 C.ar    1  UNL1        0.2018
      8 O         143.3496  143.7616  154.1424 O.2     1  UNL1       -0.2864
      9 C         145.6599  142.8286  154.8786 C.ar    1  UNL1        0.0737
     10 C         146.2900  143.4220  153.6536 C.ar    1  UNL1        0.0085
     11 C         147.7602  143.2522  153.4093 C.ar    1  UNL1        0.0299
     12 C         148.6002  142.4890  154.3900 C.ar    1  UNL1        0.1432
     13 F         150.0705  142.3192  154.1456 F       1  UNL1       -0.2041
     14 C         147.9702  141.8955  155.6150 C.ar    1  UNL1        0.0672
     15 C         146.5000  142.0653  155.8593 C.ar    1  UNL1        0.1508
     16 O         145.8698  141.4719  157.0844 O.2     1  UNL1       -0.4486
     17 C         143.0670  138.9650  159.9383 C.3     1  UNL1        0.0747
     18 C         143.9087  138.6599  161.1418 C.3     1  UNL1        0.0369
     19 C         143.2786  138.0664  162.3668 C.3     1  UNL1        0.0741
     20 N         141.8067  137.7780  162.3883 N.3     1  UNL1       -0.2689
     21 C         140.9650  138.0831  161.1848 C.3     1  UNL1        0.0741
     22 C         141.5952  138.6766  159.9598 C.3     1  UNL1        0.0369
     23 C         141.1766  137.1845  163.6133 C.3     1  UNL1        0.0991
     24 C         140.5017  138.0736  164.6153 C.ar    1  UNL1       -0.0061
     25 C         141.3094  139.0565  165.4100 C.ar    1  UNL1       -0.0029
     26 C         140.6345  139.9456  166.4120 C.ar    1  UNL1       -0.0003
     27 C         139.1519  139.8519  166.6192 C.ar    1  UNL1       -0.0000
     28 C         138.3442  138.8691  165.8245 C.ar    1  UNL1       -0.0003
     29 C         139.0191  137.9800  164.8226 C.ar    1  UNL1       -0.0029
@<TRIPOS>BOND
     1     1     2    2
     2     2     3   am
     3     3    17    1
     4    17    18    1
     5    18    19    1
     6    19    20    1
     7    20    23    1
     8    23    24    1
     9    24    25   ar
    10    25    26   ar
    11    26    27   ar
    12    27    28   ar
    13    28    29   ar
    14    20    21    1
    15    21    22    1
    16     2     5    1
    17     5     6   ar
    18     6     7   ar
    19     7     8    2
    20     7     9   ar
    21     9    10   ar
    22    10    11   ar
    23    11    12   ar
    24    12    13    1
    25    12    14   ar
    26    14    15   ar
    27    15    16   ar
    28    22    17    1
    29    16     5   ar
    30    29    24   ar
    31    15     9   ar
    32     3     4    1
