@<TRIPOS>MOLECULE
*****
 39 43 0 0 0
SMALL
GASTEIGER

@<TRIPOS>ATOM
      1 C         139.8230  139.2266  158.2893 C.2     1  UNL1        0.4052
      2 O         141.0084  139.2420  157.3703 O.2     1  UNL1       -0.2262
      3 N         139.9916  138.8236  159.7243 N.am    1  UNL1       -0.2460
      4 C         138.9046  138.7607  160.7559 C.3     1  UNL1        0.0968
      5 C         139.5180  138.3109  162.0487 C.3     1  UNL1        0.0234
      6 C         140.3972  137.8544  163.1751 C.3     1  UNL1        0.0230
      7 C         140.9843  138.0959  161.8161 C.3     1  UNL1        0.0234
      8 C         141.2770  138.4128  160.3795 C.3     1  UNL1        0.0968
      9 O         138.4690  139.6144  157.7733 O.3     1  UNL1       -0.4295
     10 C         138.0542  141.0558  157.7643 C.3     1  UNL1        0.2367
     11 C         140.3316  144.0005  159.1399 C.ar    1  UNL1        0.0685
     12 C         139.6884  143.0291  158.1951 C.ar    1  UNL1        0.0096
     13 C         138.6974  142.0273  158.7091 C.ar    1  UNL1        0.0222
     14 C         138.3495  141.9968  160.1678 C.ar    1  UNL1        0.0058
     15 C         138.9926  142.9682  161.1127 C.ar    1  UNL1        0.0763
     16 C         139.9837  143.9700  160.5987 C.ar    1  UNL1        0.0167
     17 N         142.3138  146.0041  158.1122 N.1     1  UNL1       -0.1908
     18 C         141.3227  145.0023  158.6260 C.1     1  UNL1        0.1004
     19 C         138.6448  142.9379  162.5715 C.2     1  UNL1        0.3466
     20 O         138.9622  141.7237  163.3931 O.2     1  UNL1       -0.2447
     21 O         137.9795  144.1217  163.2086 O.3     1  UNL1       -0.3701
     22 C         138.4916  144.6580  164.5125 C.3     1  UNL1        0.5774
     23 F         139.0037  145.1944  165.8163 F       1  UNL1       -0.1328
     24 F         137.1493  144.4193  165.1380 F       1  UNL1       -0.1328
     25 F         139.8340  144.8968  163.8870 F       1  UNL1       -0.1328
     26 C         140.5658  137.4514  164.6101 C.3     1  UNL1        0.0897
     27 N         140.8093  138.4958  165.6589 N.am    1  UNL1       -0.3011
     28 C         139.6705  139.3311  166.1641 C.2     1  UNL1        0.2422
     29 O         138.2882  139.1221  165.6206 O.2     1  UNL1       -0.2705
     30 H         141.7166  138.6330  166.0156 H       1  UNL1        0.1497
     31 C         139.9141  140.3756  167.2128 C.2     1  UNL1        0.0373
     32 C         140.1971  141.7922  166.8091 C.2     1  UNL1        0.0022
     33 C         140.4407  142.8366  167.8578 C.2     1  UNL1        0.0221
     34 C         140.4012  142.4644  169.3103 C.2     1  UNL1        0.1201
     35 N         140.6008  143.2713  170.5590 N.2     1  UNL1       -0.1274
     36 N         140.4410  142.3533  171.7345 N.2     1  UNL1       -0.0424
     37 N         140.1428  140.9791  171.2123 N.2     1  UNL1       -0.1312
     38 C         140.1182  141.0477  169.7141 C.2     1  UNL1        0.1060
     39 C         139.8746  140.0034  168.6653 C.3     1  UNL1        0.0802
@<TRIPOS>BOND
     1    17    18    3
     2    18    11    1
     3    11    12   ar
     4    12    13   ar
     5    13    10    1
     6    10     9    1
     7     9     1    1
     8     1     2    2
     9     1     3   am
    10     3     4    1
    11     5     4    1
    12     5     6    1
    13     6    26    1
    14    26    27    1
    15    27    28   am
    16    28    29    2
    17    28    31    1
    18    31    32    2
    19    32    33    1
    20    33    34    2
    21    34    35    1
    22    35    36    2
    23    36    37    1
    24    37    38    2
    25    38    39    1
    26     6     7    1
    27     7     8    1
    28    13    14   ar
    29    14    15   ar
    30    15    19    1
    31    19    20    2
    32    19    21    1
    33    21    22    1
    34    22    23    1
    35    22    24    1
    36    22    25    1
    37    15    16   ar
    38    16    11   ar
    39     8     3    1
    40     7     5    1
    41    39    31    1
    42    38    34    1
    43    27    30    1
@<TRIPOS>MOLECULE
*****
 39 43 0 0 0
SMALL
GASTEIGER

@<TRIPOS>ATOM
      1 C         142.3817  139.6774  158.6088 C.2     1  UNL1        0.4052
      2 O         143.4504  138.6809  158.2699 O.2     1  UNL1       -0.2262
      3 N         141.5325  139.4806  159.8295 N.am    1  UNL1       -0.2460
      4 C         140.4317  140.3877  160.2933 C.3     1  UNL1        0.0968
      5 C         139.8540  139.8098  161.5512 C.3     1  UNL1        0.0234
      6 C         139.4905  139.0072  162.7651 C.3     1  UNL1        0.0230
      7 C         140.5978  138.5454  161.8648 C.3     1  UNL1        0.0234
      8 C         141.6352  138.3420  160.8007 C.3     1  UNL1        0.0968
      9 O         142.1621  140.8707  157.7268 O.3     1  UNL1       -0.4295
     10 C         142.9164  142.1417  157.9830 C.3     1  UNL1        0.2367
     11 C         141.5091  144.5259  160.8265 C.ar    1  UNL1        0.0685
     12 C         141.6525  143.8210  159.5102 C.ar    1  UNL1        0.0096
     13 C         142.7731  142.8465  159.2993 C.ar    1  UNL1        0.0222
     14 C         143.7505  142.5768  160.4047 C.ar    1  UNL1        0.0058
     15 C         143.6072  143.2816  161.7211 C.ar    1  UNL1        0.0763
     16 C         142.4866  144.2561  161.9319 C.ar    1  UNL1        0.0167
     17 N         139.2680  146.4749  161.2483 N.1     1  UNL1       -0.1908
     18 C         140.3886  145.5004  161.0374 C.1     1  UNL1        0.1004
     19 C         144.5845  143.0120  162.8266 C.2     1  UNL1        0.3466
     20 O         145.5870  141.9048  162.6879 O.2     1  UNL1       -0.2447
     21 O         144.5594  143.8495  164.0707 O.3     1  UNL1       -0.3701
     22 C         144.1931  143.2282  165.3859 C.3     1  UNL1        0.5774
     23 F         143.8269  142.6069  166.7011 F       1  UNL1       -0.1328
     24 F         143.1449  142.4006  164.7031 F       1  UNL1       -0.1328
     25 F         145.2415  144.0558  166.0688 F       1  UNL1       -0.1328
     26 C         138.6413  138.8103  163.9860 C.3     1  UNL1        0.0897
     27 N         138.7892  139.7332  165.1592 N.am    1  UNL1       -0.3011
     28 C         140.0275  139.6799  166.0039 C.2     1  UNL1        0.2422
     29 O         141.1180  138.7039  165.6754 O.2     1  UNL1       -0.2705
     30 H         138.0734  140.3738  165.3748 H       1  UNL1        0.1497
     31 C         140.1753  140.6029  167.1771 C.2     1  UNL1        0.0373
     32 C         140.4210  142.0657  166.9544 C.2     1  UNL1        0.0022
     33 C         140.5688  142.9886  168.1277 C.2     1  UNL1        0.0221
     34 C         140.4708  142.4485  169.5236 C.2     1  UNL1        0.1201
     35 N         140.5741  143.1108  170.8655 N.2     1  UNL1       -0.1274
     36 N         140.3922  142.0573  171.9176 N.2     1  UNL1       -0.0424
     37 N         140.1765  140.7438  171.2259 N.2     1  UNL1       -0.1312
     38 C         140.2251  140.9857  169.7463 C.2     1  UNL1        0.1060
     39 C         140.0774  140.0628  168.5731 C.3     1  UNL1        0.0802
@<TRIPOS>BOND
     1    17    18    3
     2    18    11    1
     3    11    12   ar
     4    12    13   ar
     5    13    10    1
     6    10     9    1
     7     9     1    1
     8     1     2    2
     9     1     3   am
    10     3     4    1
    11     5     4    1
    12     5     6    1
    13     6    26    1
    14    26    27    1
    15    27    28   am
    16    28    29    2
    17    28    31    1
    18    31    32    2
    19    32    33    1
    20    33    34    2
    21    34    35    1
    22    35    36    2
    23    36    37    1
    24    37    38    2
    25    38    39    1
    26     6     7    1
    27     7     8    1
    28    13    14   ar
    29    14    15   ar
    30    15    19    1
    31    19    20    2
    32    19    21    1
    33    21    22    1
    34    22    23    1
    35    22    24    1
    36    22    25    1
    37    15    16   ar
    38    16    11   ar
    39     8     3    1
    40     7     5    1
    41    39    31    1
    42    38    34    1
    43    27    30    1
@<TRIPOS>MOLECULE
*****
 39 43 0 0 0
SMALL
GASTEIGER

@<TRIPOS>ATOM
      1 C         138.8090  140.1210  158.5614 C.2     1  UNL1        0.4052
      2 O         137.5167  140.4521  157.8756 O.2     1  UNL1       -0.2262
      3 N         138.8012  139.6218  159.9758 N.am    1  UNL1       -0.2460
      4 C         140.0075  139.2523  160.7871 C.3     1  UNL1        0.0968
      5 C         139.5374  138.8065  162.1400 C.3     1  UNL1        0.0234
      6 C         138.7821  138.4212  163.3774 C.3     1  UNL1        0.0230
      7 C         138.0405  138.9006  162.1649 C.3     1  UNL1        0.0234
      8 C         137.5854  139.4044  160.8273 C.3     1  UNL1        0.0968
      9 O         140.1093  140.2892  157.8326 O.3     1  UNL1       -0.4295
     10 C         140.8002  141.6206  157.8287 C.3     1  UNL1        0.2367
     11 C         142.8888  142.5195  161.0813 C.ar    1  UNL1        0.0685
     12 C         142.4897  141.8778  159.7856 C.ar    1  UNL1        0.0096
     13 C         141.1993  142.2623  159.1244 C.ar    1  UNL1        0.0222
     14 C         140.3080  143.2884  159.7590 C.ar    1  UNL1        0.0058
     15 C         140.7071  143.9301  161.0547 C.ar    1  UNL1        0.0763
     16 C         141.9974  143.5457  161.7159 C.ar    1  UNL1        0.0167
     17 N         145.4695  141.7508  162.4037 N.1     1  UNL1       -0.1908
     18 C         144.1791  142.1352  161.7425 C.1     1  UNL1        0.1004
     19 C         139.8158  144.9562  161.6893 C.2     1  UNL1        0.3466
     20 O         139.4462  146.1985  160.9343 O.2     1  UNL1       -0.2447
     21 O         139.2942  144.7401  163.0790 O.3     1  UNL1       -0.3701
     22 C         138.7830  143.3901  163.4867 C.3     1  UNL1        0.5774
     23 F         138.2718  142.0401  163.8944 F       1  UNL1       -0.1328
     24 F         137.6279  143.5420  162.5418 F       1  UNL1       -0.1328
     25 F         139.9381  143.2382  164.4316 F       1  UNL1       -0.1328
     26 C         138.7741  137.9219  164.7919 C.3     1  UNL1        0.0897
     27 N         138.8672  138.8937  165.9308 N.am    1  UNL1       -0.3011
     28 C         140.1927  139.4901  166.3013 C.2     1  UNL1        0.2422
     29 O         141.4251  139.1148  165.5330 O.2     1  UNL1       -0.2705
     30 H         138.0583  139.1400  166.4350 H       1  UNL1        0.1497
     31 C         140.2857  140.4619  167.4402 C.2     1  UNL1        0.0373
     32 C         140.3880  141.9328  167.1647 C.2     1  UNL1        0.0022
     33 C         140.4811  142.9046  168.3036 C.2     1  UNL1        0.0221
     34 C         140.4718  142.4053  169.7180 C.2     1  UNL1        0.1201
     35 N         140.5493  143.1194  171.0349 N.2     1  UNL1       -0.1274
     36 N         140.4950  142.0897  172.1243 N.2     1  UNL1       -0.0424
     37 N         140.3838  140.7393  171.4808 N.2     1  UNL1       -0.1312
     38 C         140.3694  140.9344  169.9936 C.2     1  UNL1        0.1060
     39 C         140.2764  139.9627  168.8547 C.3     1  UNL1        0.0802
@<TRIPOS>BOND
     1    17    18    3
     2    18    11    1
     3    11    12   ar
     4    12    13   ar
     5    13    10    1
     6    10     9    1
     7     9     1    1
     8     1     2    2
     9     1     3   am
    10     3     4    1
    11     5     4    1
    12     5     6    1
    13     6    26    1
    14    26    27    1
    15    27    28   am
    16    28    29    2
    17    28    31    1
    18    31    32    2
    19    32    33    1
    20    33    34    2
    21    34    35    1
    22    35    36    2
    23    36    37    1
    24    37    38    2
    25    38    39    1
    26     6     7    1
    27     7     8    1
    28    13    14   ar
    29    14    15   ar
    30    15    19    1
    31    19    20    2
    32    19    21    1
    33    21    22    1
    34    22    23    1
    35    22    24    1
    36    22    25    1
    37    15    16   ar
    38    16    11   ar
    39     8     3    1
    40     7     5    1
    41    39    31    1
    42    38    34    1
    43    27    30    1
@<TRIPOS>MOLECULE
*****
 39 43 0 0 0
SMALL
GASTEIGER

@<TRIPOS>ATOM
      1 C         141.0129  143.5514  159.5409 C.2     1  UNL1        0.4052
      2 O         141.5891  143.0480  158.2507 O.2     1  UNL1       -0.2262
      3 N         141.8576  143.5770  160.7801 N.am    1  UNL1       -0.2460
      4 C         141.4213  144.0503  162.1349 C.3     1  UNL1        0.0968
      5 C         142.5811  143.8997  163.0742 C.3     1  UNL1        0.0234
      6 C         143.8892  143.6386  163.7602 C.3     1  UNL1        0.0230
      7 C         143.7342  143.3332  162.2999 C.3     1  UNL1        0.0234
      8 C         143.2871  143.1337  160.8820 C.3     1  UNL1        0.0968
      9 O         139.5919  144.0291  159.5918 O.3     1  UNL1       -0.4295
     10 C         138.5083  143.1100  160.0723 C.3     1  UNL1        0.2367
     11 C         138.2295  143.3713  164.0225 C.ar    1  UNL1        0.0685
     12 C         138.2916  143.7663  162.5768 C.ar    1  UNL1        0.0096
     13 C         138.4462  142.7150  161.5180 C.ar    1  UNL1        0.0222
     14 C         138.5387  141.2688  161.9050 C.ar    1  UNL1        0.0058
     15 C         138.4767  140.8737  163.3507 C.ar    1  UNL1        0.0763
     16 C         138.3221  141.9250  164.4094 C.ar    1  UNL1        0.0167
     17 N         137.9203  145.4737  166.1401 N.1     1  UNL1       -0.1908
     18 C         138.0749  144.4225  165.0812 C.1     1  UNL1        0.1004
     19 C         138.5692  139.4275  163.7377 C.2     1  UNL1        0.3466
     20 O         138.1672  138.3625  162.7609 O.2     1  UNL1       -0.2447
     21 O         139.0637  139.0462  165.1016 O.3     1  UNL1       -0.3701
     22 C         138.3197  138.0259  165.9111 C.3     1  UNL1        0.5774
     23 F         137.5757  137.0055  166.7205 F       1  UNL1       -0.1328
     24 F         137.4761  139.1137  166.5070 F       1  UNL1       -0.1328
     25 F         139.1632  136.9381  165.3151 F       1  UNL1       -0.1328
     26 C         144.7341  143.6642  164.9995 C.3     1  UNL1        0.0897
     27 N         144.1207  143.3505  166.3319 N.am    1  UNL1       -0.3011
     28 C         143.3113  142.1001  166.5092 C.2     1  UNL1        0.2422
     29 O         143.1152  141.1636  165.3541 O.2     1  UNL1       -0.2705
     30 H         144.2495  143.9652  167.0901 H       1  UNL1        0.1497
     31 C         142.6980  141.7864  167.8417 C.2     1  UNL1        0.0373
     32 C         143.2984  142.3505  169.0951 C.2     1  UNL1        0.0022
     33 C         142.6850  142.0368  170.4277 C.2     1  UNL1        0.0221
     34 C         141.4713  141.1589  170.5066 C.2     1  UNL1        0.1201
     35 N         140.6536  140.6790  171.6689 N.2     1  UNL1       -0.1274
     36 N         139.5479  139.8183  171.1337 N.2     1  UNL1       -0.0424
     37 N         139.6822  139.7662  169.6406 N.2     1  UNL1       -0.1312
     38 C         140.8709  140.5948  169.2530 C.2     1  UNL1        0.1060
     39 C         141.4843  140.9086  167.9206 C.3     1  UNL1        0.0802
@<TRIPOS>BOND
     1    17    18    3
     2    18    11    1
     3    11    12   ar
     4    12    13   ar
     5    13    10    1
     6    10     9    1
     7     9     1    1
     8     1     2    2
     9     1     3   am
    10     3     4    1
    11     5     4    1
    12     5     6    1
    13     6    26    1
    14    26    27    1
    15    27    28   am
    16    28    29    2
    17    28    31    1
    18    31    32    2
    19    32    33    1
    20    33    34    2
    21    34    35    1
    22    35    36    2
    23    36    37    1
    24    37    38    2
    25    38    39    1
    26     6     7    1
    27     7     8    1
    28    13    14   ar
    29    14    15   ar
    30    15    19    1
    31    19    20    2
    32    19    21    1
    33    21    22    1
    34    22    23    1
    35    22    24    1
    36    22    25    1
    37    15    16   ar
    38    16    11   ar
    39     8     3    1
    40     7     5    1
    41    39    31    1
    42    38    34    1
    43    27    30    1
@<TRIPOS>MOLECULE
*****
 39 43 0 0 0
SMALL
GASTEIGER

@<TRIPOS>ATOM
      1 C         141.3318  140.0957  158.5361 C.2     1  UNL1        0.4052
      2 O         142.2410  139.1812  157.7699 O.2     1  UNL1       -0.2262
      3 N         140.7887  139.6702  159.8679 N.am    1  UNL1       -0.2460
      4 C         139.8738  140.4732  160.7444 C.3     1  UNL1        0.0968
      5 C         139.5848  139.6662  161.9753 C.3     1  UNL1        0.0234
      6 C         139.4826  138.6468  163.0708 C.3     1  UNL1        0.0230
      7 C         140.3210  138.3644  161.8596 C.3     1  UNL1        0.0234
      8 C         141.0651  138.3669  160.5572 C.3     1  UNL1        0.0968
      9 O         140.9658  141.4359  157.9703 O.3     1  UNL1       -0.4295
     10 C         141.8193  142.6334  158.2659 C.3     1  UNL1        0.2367
     11 C         143.5903  142.8384  161.8115 C.ar    1  UNL1        0.0685
     12 C         143.3042  142.4537  160.3902 C.ar    1  UNL1        0.0096
     13 C         142.1054  143.0181  159.6872 C.ar    1  UNL1        0.0222
     14 C         141.1926  143.9672  160.4054 C.ar    1  UNL1        0.0058
     15 C         141.4786  144.3520  161.8268 C.ar    1  UNL1        0.0763
     16 C         142.6774  143.7876  162.5298 C.ar    1  UNL1        0.0167
     17 N         145.9878  141.7097  163.2177 N.1     1  UNL1       -0.1908
     18 C         144.7890  142.2740  162.5146 C.1     1  UNL1        0.1004
     19 C         140.5658  145.3011  162.5451 C.2     1  UNL1        0.3466
     20 O         140.0169  146.4999  161.8298 O.2     1  UNL1       -0.2447
     21 O         140.2020  145.0515  163.9788 O.3     1  UNL1       -0.3701
     22 C         138.8172  144.5968  164.3329 C.3     1  UNL1        0.5774
     23 F         137.4324  144.1421  164.6872 F       1  UNL1       -0.1328
     24 F         138.7019  143.9121  163.0033 F       1  UNL1       -0.1328
     25 F         138.9326  145.2815  165.6627 F       1  UNL1       -0.1328
     26 C         138.9394  138.2211  164.4028 C.3     1  UNL1        0.0897
     27 N         138.9811  139.1666  165.5666 N.am    1  UNL1       -0.3011
     28 C         140.3001  139.6413  166.1002 C.2     1  UNL1        0.2422
     29 O         141.5773  139.1707  165.4702 O.2     1  UNL1       -0.2705
     30 H         138.1428  139.4755  165.9801 H       1  UNL1        0.1497
     31 C         140.3418  140.5868  167.2641 C.2     1  UNL1        0.0373
     32 C         140.4251  142.0654  167.0266 C.2     1  UNL1        0.0022
     33 C         140.4668  143.0109  168.1904 C.2     1  UNL1        0.0221
     34 C         140.4251  142.4775  169.5918 C.2     1  UNL1        0.1201
     35 N         140.4508  143.1608  170.9269 N.2     1  UNL1       -0.1274
     36 N         140.3833  142.1043  171.9895 N.2     1  UNL1       -0.0424
     37 N         140.3159  140.7681  171.3112 N.2     1  UNL1       -0.1312
     38 C         140.3417  140.9988  169.8293 C.2     1  UNL1        0.1060
     39 C         140.3000  140.0534  168.6654 C.3     1  UNL1        0.0802
@<TRIPOS>BOND
     1    17    18    3
     2    18    11    1
     3    11    12   ar
     4    12    13   ar
     5    13    10    1
     6    10     9    1
     7     9     1    1
     8     1     2    2
     9     1     3   am
    10     3     4    1
    11     5     4    1
    12     5     6    1
    13     6    26    1
    14    26    27    1
    15    27    28   am
    16    28    29    2
    17    28    31    1
    18    31    32    2
    19    32    33    1
    20    33    34    2
    21    34    35    1
    22    35    36    2
    23    36    37    1
    24    37    38    2
    25    38    39    1
    26     6     7    1
    27     7     8    1
    28    13    14   ar
    29    14    15   ar
    30    15    19    1
    31    19    20    2
    32    19    21    1
    33    21    22    1
    34    22    23    1
    35    22    24    1
    36    22    25    1
    37    15    16   ar
    38    16    11   ar
    39     8     3    1
    40     7     5    1
    41    39    31    1
    42    38    34    1
    43    27    30    1
@<TRIPOS>MOLECULE
*****
 39 43 0 0 0
SMALL
GASTEIGER

@<TRIPOS>ATOM
      1 C         139.5206  140.3904  169.0823 C.2     1  UNL1        0.4052
      2 O         138.4219  140.4428  170.1022 O.2     1  UNL1       -0.2262
      3 N         139.3042  139.6731  167.7829 N.am    1  UNL1       -0.2460
      4 C         140.3045  139.5375  166.6734 C.3     1  UNL1        0.0968
      5 C         139.6679  138.7461  165.5696 C.3     1  UNL1        0.0234
      6 C         138.7835  137.9482  164.6579 C.3     1  UNL1        0.0230
      7 C         138.2741  138.3926  165.9969 C.3     1  UNL1        0.0234
      8 C         138.0493  138.9655  167.3648 C.3     1  UNL1        0.0968
      9 O         140.8359  141.0552  169.3621 O.3     1  UNL1       -0.4295
     10 C         141.0970  142.4434  168.8573 C.3     1  UNL1        0.2367
     11 C         142.8595  142.6007  165.3051 C.ar    1  UNL1        0.0685
     12 C         142.6421  142.3639  166.7702 C.ar    1  UNL1        0.0096
     13 C         141.3144  142.6802  167.3922 C.ar    1  UNL1        0.0222
     14 C         140.2039  143.2334  166.5491 C.ar    1  UNL1        0.0058
     15 C         140.4212  143.4702  165.0839 C.ar    1  UNL1        0.0763
     16 C         141.7490  143.1539  164.4619 C.ar    1  UNL1        0.0167
     17 N         145.5150  141.9681  164.0609 N.1     1  UNL1       -0.1908
     18 C         144.1872  142.2844  164.6830 C.1     1  UNL1        0.1004
     19 C         139.3108  144.0234  164.2407 C.2     1  UNL1        0.3466
     20 O         139.5808  145.1539  163.2925 O.2     1  UNL1       -0.2447
     21 O         137.9303  143.4461  164.3458 O.3     1  UNL1       -0.3701
     22 C         137.6165  142.1299  163.6986 C.3     1  UNL1        0.5774
     23 F         137.3027  140.8136  163.0514 F       1  UNL1       -0.1328
     24 F         137.4372  142.8212  162.3795 F       1  UNL1       -0.1328
     25 F         137.7958  141.4386  165.0177 F       1  UNL1       -0.1328
     26 C         138.5670  137.2309  163.3583 C.3     1  UNL1        0.0897
     27 N         138.5687  137.9976  162.0691 N.am    1  UNL1       -0.3011
     28 C         139.8384  138.1410  161.2835 C.2     1  UNL1        0.2422
     29 O         141.1064  137.5177  161.7870 O.2     1  UNL1       -0.2705
     30 H         137.7365  138.4067  161.7386 H       1  UNL1        0.1497
     31 C         139.8401  138.9078  159.9942 C.2     1  UNL1        0.0373
     32 C         141.0714  138.9329  159.1381 C.2     1  UNL1        0.0022
     33 C         141.0730  139.6996  157.8488 C.2     1  UNL1        0.0221
     34 C         139.8432  140.4413  157.4158 C.2     1  UNL1        0.1201
     35 N         139.5494  141.2773  156.2055 N.2     1  UNL1       -0.1274
     36 N         138.1363  141.7688  156.3137 N.2     1  UNL1       -0.0424
     37 N         137.5569  141.2366  157.5908 N.2     1  UNL1       -0.1312
     38 C         138.6118  140.4161  158.2720 C.2     1  UNL1        0.1060
     39 C         138.6102  139.6494  159.5612 C.3     1  UNL1        0.0802
@<TRIPOS>BOND
     1    17    18    3
     2    18    11    1
     3    11    12   ar
     4    12    13   ar
     5    13    10    1
     6    10     9    1
     7     9     1    1
     8     1     2    2
     9     1     3   am
    10     3     4    1
    11     5     4    1
    12     5     6    1
    13     6    26    1
    14    26    27    1
    15    27    28   am
    16    28    29    2
    17    28    31    1
    18    31    32    2
    19    32    33    1
    20    33    34    2
    21    34    35    1
    22    35    36    2
    23    36    37    1
    24    37    38    2
    25    38    39    1
    26     6     7    1
    27     7     8    1
    28    13    14   ar
    29    14    15   ar
    30    15    19    1
    31    19    20    2
    32    19    21    1
    33    21    22    1
    34    22    23    1
    35    22    24    1
    36    22    25    1
    37    15    16   ar
    38    16    11   ar
    39     8     3    1
    40     7     5    1
    41    39    31    1
    42    38    34    1
    43    27    30    1
@<TRIPOS>MOLECULE
*****
 39 43 0 0 0
SMALL
GASTEIGER

@<TRIPOS>ATOM
      1 C         138.0950  139.8831  162.9234 C.2     1  UNL1        0.4052
      2 O         137.2045  141.0825  163.0593 O.2     1  UNL1       -0.2262
      3 N         138.6544  139.5123  161.5820 N.am    1  UNL1       -0.2460
      4 C         139.5538  138.3471  161.2933 C.3     1  UNL1        0.0968
      5 C         139.8680  138.3564  159.8266 C.3     1  UNL1        0.0234
      6 C         139.9999  138.6208  158.3560 C.3     1  UNL1        0.0230
      7 C         139.1627  139.5274  159.2088 C.3     1  UNL1        0.0234
      8 C         138.4127  140.2418  160.2938 C.3     1  UNL1        0.0968
      9 O         138.4259  139.0544  164.1292 O.3     1  UNL1       -0.4295
     10 C         138.4042  139.6747  165.4947 C.3     1  UNL1        0.2367
     11 C         140.7970  140.0850  168.6342 C.ar    1  UNL1        0.0685
     12 C         139.5697  140.1250  167.7726 C.ar    1  UNL1        0.0096
     13 C         139.6314  139.6347  166.3563 C.ar    1  UNL1        0.0222
     14 C         140.9202  139.1045  165.8016 C.ar    1  UNL1        0.0058
     15 C         142.1475  139.0644  166.6631 C.ar    1  UNL1        0.0763
     16 C         142.0858  139.5547  168.0794 C.ar    1  UNL1        0.0167
     17 N         140.6738  141.0654  171.4667 N.1     1  UNL1       -0.1908
     18 C         140.7354  140.5752  170.0504 C.1     1  UNL1        0.1004
     19 C         143.4363  138.5342  166.1084 C.2     1  UNL1        0.3466
     20 O         144.3435  137.7115  166.9746 O.2     1  UNL1       -0.2447
     21 O         143.8180  138.8267  164.6876 O.3     1  UNL1       -0.3701
     22 C         144.7146  139.9880  164.3757 C.3     1  UNL1        0.5774
     23 F         145.6112  141.1494  164.0638 F       1  UNL1       -0.1328
     24 F         145.9170  139.1298  164.6362 F       1  UNL1       -0.1328
     25 F         143.5123  140.8463  164.1153 F       1  UNL1       -0.1328
     26 C         140.5593  138.2501  157.0144 C.3     1  UNL1        0.0897
     27 N         140.8252  136.8113  156.6843 N.am    1  UNL1       -0.3011
     28 C         142.2352  136.3300  156.5099 C.2     1  UNL1        0.2422
     29 O         143.3792  137.2875  156.6657 O.2     1  UNL1       -0.2705
     30 H         140.0744  136.1828  156.5821 H       1  UNL1        0.1497
     31 C         142.5010  134.8911  156.1798 C.2     1  UNL1        0.0373
     32 C         141.4360  134.0627  155.5246 C.2     1  UNL1        0.0022
     33 C         141.7018  132.6238  155.1945 C.2     1  UNL1        0.0221
     34 C         143.0328  132.0133  155.5196 C.2     1  UNL1        0.1201
     35 N         143.5805  130.6321  155.3144 N.2     1  UNL1       -0.1274
     36 N         144.9841  130.6068  155.8428 N.2     1  UNL1       -0.0424
     37 N         145.3040  131.9724  156.3745 N.2     1  UNL1       -0.1312
     38 C         144.0980  132.8418  156.1748 C.2     1  UNL1        0.1060
     39 C         143.8321  134.2806  156.5049 C.3     1  UNL1        0.0802
@<TRIPOS>BOND
     1    17    18    3
     2    18    11    1
     3    11    12   ar
     4    12    13   ar
     5    13    10    1
     6    10     9    1
     7     9     1    1
     8     1     2    2
     9     1     3   am
    10     3     4    1
    11     5     4    1
    12     5     6    1
    13     6    26    1
    14    26    27    1
    15    27    28   am
    16    28    29    2
    17    28    31    1
    18    31    32    2
    19    32    33    1
    20    33    34    2
    21    34    35    1
    22    35    36    2
    23    36    37    1
    24    37    38    2
    25    38    39    1
    26     6     7    1
    27     7     8    1
    28    13    14   ar
    29    14    15   ar
    30    15    19    1
    31    19    20    2
    32    19    21    1
    33    21    22    1
    34    22    23    1
    35    22    24    1
    36    22    25    1
    37    15    16   ar
    38    16    11   ar
    39     8     3    1
    40     7     5    1
    41    39    31    1
    42    38    34    1
    43    27    30    1
@<TRIPOS>MOLECULE
*****
 39 43 0 0 0
SMALL
GASTEIGER

@<TRIPOS>ATOM
      1 C         138.0998  141.4995  159.3153 C.2     1  UNL1        0.4052
      2 O         137.5532  140.8411  158.0834 O.2     1  UNL1       -0.2262
      3 N         138.2672  140.7070  160.5778 N.am    1  UNL1       -0.2460
      4 C         138.7980  141.2265  161.8810 C.3     1  UNL1        0.0968
      5 C         138.7921  140.0964  162.8673 C.3     1  UNL1        0.0234
      6 C         138.6699  138.8011  163.6138 C.3     1  UNL1        0.0230
      7 C         138.2576  138.8785  162.1737 C.3     1  UNL1        0.0234
      8 C         137.9332  139.2558  160.7587 C.3     1  UNL1        0.0968
      9 O         138.4789  142.9505  159.2847 O.3     1  UNL1       -0.4295
     10 C         139.8959  143.3496  158.9967 C.3     1  UNL1        0.2367
     11 C         142.7703  141.1902  160.6774 C.ar    1  UNL1        0.0685
     12 C         141.6700  141.6060  159.7466 C.ar    1  UNL1        0.0096
     13 C         140.9961  142.9338  159.9276 C.ar    1  UNL1        0.0222
     14 C         141.4224  143.8459  161.0395 C.ar    1  UNL1        0.0058
     15 C         142.5227  143.4301  161.9705 C.ar    1  UNL1        0.0763
     16 C         143.1966  142.1023  161.7894 C.ar    1  UNL1        0.0167
     17 N         144.1182  138.5347  160.3155 N.1     1  UNL1       -0.1908
     18 C         143.4442  139.8625  160.4964 C.1     1  UNL1        0.1004
     19 C         142.9491  144.3421  163.0824 C.2     1  UNL1        0.3466
     20 O         144.0654  145.3200  162.8641 O.2     1  UNL1       -0.2447
     21 O         142.2591  144.2763  164.4127 O.3     1  UNL1       -0.3701
     22 C         141.1750  143.2663  164.6462 C.3     1  UNL1        0.5774
     23 F         140.0910  142.2562  164.8797 F       1  UNL1       -0.1328
     24 F         140.1558  144.2430  164.1391 F       1  UNL1       -0.1328
     25 F         142.1944  142.2895  165.1532 F       1  UNL1       -0.1328
     26 C         138.8373  138.0086  164.8764 C.3     1  UNL1        0.0897
     27 N         139.1891  138.7045  166.1577 N.am    1  UNL1       -0.3011
     28 C         140.5620  139.2781  166.3472 C.2     1  UNL1        0.2422
     29 O         141.5832  139.1558  165.2554 O.2     1  UNL1       -0.2705
     30 H         138.5188  138.7849  166.8744 H       1  UNL1        0.1497
     31 C         140.9138  139.9741  167.6287 C.2     1  UNL1        0.0373
     32 C         142.3464  140.0667  168.0631 C.2     1  UNL1        0.0022
     33 C         142.6981  140.7627  169.3446 C.2     1  UNL1        0.0221
     34 C         141.6170  141.3660  170.1914 C.2     1  UNL1        0.1201
     35 N         141.6593  142.1081  171.4943 N.2     1  UNL1       -0.1274
     36 N         140.2527  142.4742  171.8650 N.2     1  UNL1       -0.0424
     37 N         139.3411  141.9584  170.7912 N.2     1  UNL1       -0.1312
     38 C         140.1843  141.2735  169.7569 C.2     1  UNL1        0.1060
     39 C         139.8327  140.5775  168.4755 C.3     1  UNL1        0.0802
@<TRIPOS>BOND
     1    17    18    3
     2    18    11    1
     3    11    12   ar
     4    12    13   ar
     5    13    10    1
     6    10     9    1
     7     9     1    1
     8     1     2    2
     9     1     3   am
    10     3     4    1
    11     5     4    1
    12     5     6    1
    13     6    26    1
    14    26    27    1
    15    27    28   am
    16    28    29    2
    17    28    31    1
    18    31    32    2
    19    32    33    1
    20    33    34    2
    21    34    35    1
    22    35    36    2
    23    36    37    1
    24    37    38    2
    25    38    39    1
    26     6     7    1
    27     7     8    1
    28    13    14   ar
    29    14    15   ar
    30    15    19    1
    31    19    20    2
    32    19    21    1
    33    21    22    1
    34    22    23    1
    35    22    24    1
    36    22    25    1
    37    15    16   ar
    38    16    11   ar
    39     8     3    1
    40     7     5    1
    41    39    31    1
    42    38    34    1
    43    27    30    1
@<TRIPOS>MOLECULE
*****
 39 43 0 0 0
SMALL
GASTEIGER

@<TRIPOS>ATOM
      1 C         141.7483  139.0199  158.8408 C.2     1  UNL1        0.4052
      2 O         142.6934  138.8655  157.6863 O.2     1  UNL1       -0.2262
      3 N         142.2749  139.3806  160.1982 N.am    1  UNL1       -0.2460
      4 C         141.4555  139.5684  161.4405 C.3     1  UNL1        0.0968
      5 C         142.3876  139.9206  162.5617 C.3     1  UNL1        0.0234
      6 C         143.5415  140.2479  163.4625 C.3     1  UNL1        0.0230
      7 C         143.7832  139.9506  162.0123 C.3     1  UNL1        0.0234
      8 C         143.7135  139.6168  160.5516 C.3     1  UNL1        0.0968
      9 O         140.2764  138.8137  158.6379 O.3     1  UNL1       -0.4295
     10 C         139.4095  139.9620  158.2137 C.3     1  UNL1        0.2367
     11 C         140.4432  143.6607  159.2144 C.ar    1  UNL1        0.0685
     12 C         140.3789  142.3585  158.4726 C.ar    1  UNL1        0.0096
     13 C         139.4738  141.2642  158.9555 C.ar    1  UNL1        0.0222
     14 C         138.6329  141.4720  160.1801 C.ar    1  UNL1        0.0058
     15 C         138.6971  142.7741  160.9219 C.ar    1  UNL1        0.0763
     16 C         139.6022  143.8685  160.4390 C.ar    1  UNL1        0.0167
     17 N         142.2533  145.8494  158.2487 N.1     1  UNL1       -0.1908
     18 C         141.3482  144.7550  158.7316 C.1     1  UNL1        0.1004
     19 C         137.8562  142.9820  162.1465 C.2     1  UNL1        0.3466
     20 O         137.1309  141.8232  162.7638 O.2     1  UNL1       -0.2447
     21 O         137.7407  144.3487  162.7539 O.3     1  UNL1       -0.3701
     22 C         138.4694  144.6684  164.0254 C.3     1  UNL1        0.5774
     23 F         139.1980  144.9882  165.2969 F       1  UNL1       -0.1328
     24 F         139.5918  145.2682  163.2314 F       1  UNL1       -0.1328
     25 F         137.3469  144.0686  164.8194 F       1  UNL1       -0.1328
     26 C         144.0682  140.6086  164.8200 C.3     1  UNL1        0.0897
     27 N         143.1425  141.1675  165.8595 N.am    1  UNL1       -0.3011
     28 C         142.5737  140.2696  166.9178 C.2     1  UNL1        0.2422
     29 O         142.9306  138.8129  166.9367 O.2     1  UNL1       -0.2705
     30 H         142.9082  142.1236  165.8471 H       1  UNL1        0.1497
     31 C         141.6479  140.8286  167.9574 C.2     1  UNL1        0.0373
     32 C         140.6440  139.9365  168.6253 C.2     1  UNL1        0.0022
     33 C         139.7182  140.4954  169.6648 C.2     1  UNL1        0.0221
     34 C         139.7964  141.9466  170.0364 C.2     1  UNL1        0.1201
     35 N         139.0208  142.7746  171.0176 N.2     1  UNL1       -0.1274
     36 N         139.5454  144.1785  170.9560 N.2     1  UNL1       -0.0424
     37 N         140.6453  144.2182  169.9368 N.2     1  UNL1       -0.1312
     38 C         140.8004  142.8387  169.3684 C.2     1  UNL1        0.1060
     39 C         141.7261  142.2797  168.3289 C.3     1  UNL1        0.0802
@<TRIPOS>BOND
     1    17    18    3
     2    18    11    1
     3    11    12   ar
     4    12    13   ar
     5    13    10    1
     6    10     9    1
     7     9     1    1
     8     1     2    2
     9     1     3   am
    10     3     4    1
    11     5     4    1
    12     5     6    1
    13     6    26    1
    14    26    27    1
    15    27    28   am
    16    28    29    2
    17    28    31    1
    18    31    32    2
    19    32    33    1
    20    33    34    2
    21    34    35    1
    22    35    36    2
    23    36    37    1
    24    37    38    2
    25    38    39    1
    26     6     7    1
    27     7     8    1
    28    13    14   ar
    29    14    15   ar
    30    15    19    1
    31    19    20    2
    32    19    21    1
    33    21    22    1
    34    22    23    1
    35    22    24    1
    36    22    25    1
    37    15    16   ar
    38    16    11   ar
    39     8     3    1
    40     7     5    1
    41    39    31    1
    42    38    34    1
    43    27    30    1
