@<TRIPOS>MOLECULE
*****
 33 37 0 0 0
SMALL
GASTEIGER

@<TRIPOS>ATOM
      1 C         142.1623  137.9334  164.1127 C.3     1  UNL1        0.0004
      2 C         142.5319  138.1640  162.6774 C.3     1  UNL1        0.0014
      3 C         143.6767  139.0703  162.3341 C.3     1  UNL1        0.0157
      4 C         144.4521  139.7459  163.4261 C.3     1  UNL1        0.0543
      5 C         144.0825  139.5153  164.8614 C.3     1  UNL1        0.0157
      6 C         142.9375  138.6089  165.2047 C.3     1  UNL1        0.0014
      7 N         145.5969  140.6522  163.0827 N.3     1  UNL1       -0.2935
      8 H         145.6837  140.6448  162.0665 H       1  UNL1        0.1236
      9 C         145.5668  142.0914  163.5044 C.3     1  UNL1        0.1152
     10 C         144.3245  142.9068  163.3003 C.ar    1  UNL1        0.0782
     11 C         143.8938  143.2833  161.9136 C.ar    1  UNL1        0.0562
     12 C         142.6514  144.0988  161.7096 C.ar    1  UNL1        0.1752
     13 C         141.8397  144.5377  162.8922 C.ar    1  UNL1        0.1914
     14 C         142.2704  144.1612  164.2788 C.ar    1  UNL1        0.1384
     15 N         143.5127  143.3458  164.4829 N.ar    1  UNL1       -0.2434
     16 O         140.5974  145.3532  162.6881 O.3     1  UNL1       -0.4668
     17 C         140.1667  145.7297  161.3015 C.3     1  UNL1        0.2527
     18 C         140.9784  145.2907  160.1189 C.3     1  UNL1        0.2526
     19 O         142.2208  144.4753  160.3230 O.3     1  UNL1       -0.4683
     20 C         141.0174  137.0271  164.4561 C.3     1  UNL1        0.0047
     21 C         139.6735  137.6075  164.7836 C.3     1  UNL1        0.0265
     22 C         139.4870  142.0299  165.5946 C.ar    1  UNL1        0.1388
     23 C         138.8065  142.9433  164.6186 C.ar    1  UNL1        0.0384
     24 C         138.1881  142.3826  163.3723 C.ar    1  UNL1        0.0222
     25 C         138.2503  140.9085  163.1020 C.ar    1  UNL1        0.0812
     26 N         137.6319  140.3478  161.8557 N.ar    1  UNL1       -0.2439
     27 C         137.6941  138.8737  161.5854 C.ar    1  UNL1        0.0985
     28 C         138.3746  137.9602  162.5614 C.ar    1  UNL1        0.0164
     29 C         138.9930  138.5209  163.8076 C.ar    1  UNL1       -0.0191
     30 C         138.9308  139.9951  164.0779 C.ar    1  UNL1        0.0168
     31 C         139.5491  140.5558  165.3242 C.ar    1  UNL1        0.0381
     32 C         141.4041  142.0375  167.3480 C.3     1  UNL1        0.2525
     33 O         140.1053  142.5906  166.8408 O.3     1  UNL1       -0.4714
@<TRIPOS>BOND
     1    32    33    1
     2    33    22    1
     3    22    23   ar
     4    23    24   ar
     5    24    25   ar
     6    25    26   ar
     7    26    27   ar
     8    27    28   ar
     9    28    29   ar
    10    29    21    1
    11    21    20    1
    12     1    20    1
    13     1     2    1
    14     2     3    1
    15     3     4    1
    16     4     7    1
    17     7     9    1
    18     9    10    1
    19    10    11   ar
    20    11    12   ar
    21    12    13   ar
    22    13    14   ar
    23    14    15   ar
    24    13    16    1
    25    16    17    1
    26    17    18    1
    27    18    19    1
    28     4     5    1
    29     5     6    1
    30    29    30   ar
    31    30    31   ar
    32    31    22   ar
    33    30    25   ar
    34     6     1    1
    35    15    10   ar
    36    19    12    1
    37     7     8    1
@<TRIPOS>MOLECULE
*****
 33 37 0 0 0
SMALL
GASTEIGER

@<TRIPOS>ATOM
      1 C         142.9142  144.2063  162.8511 C.3     1  UNL1        0.0004
      2 C         142.1431  144.7687  164.0083 C.3     1  UNL1        0.0014
      3 C         140.6845  145.0835  163.8556 C.3     1  UNL1        0.0157
      4 C         139.9970  144.8361  162.5455 C.3     1  UNL1        0.0543
      5 C         140.7680  144.2737  161.3883 C.3     1  UNL1        0.0157
      6 C         142.2267  143.9589  161.5411 C.3     1  UNL1        0.0014
      7 N         138.5384  145.1509  162.3928 N.3     1  UNL1       -0.2935
      8 H         138.3383  145.1417  161.3926 H       1  UNL1        0.1236
      9 C         137.5099  144.2776  163.0482 C.3     1  UNL1        0.1152
     10 C         137.7380  142.7987  163.1521 C.ar    1  UNL1        0.0782
     11 C         138.0446  142.1788  164.4831 C.ar    1  UNL1        0.0562
     12 C         138.2727  140.6998  164.5869 C.ar    1  UNL1        0.1752
     13 C         138.1943  139.8409  163.3598 C.ar    1  UNL1        0.1914
     14 C         137.8877  140.4608  162.0287 C.ar    1  UNL1        0.1384
     15 N         137.6596  141.9397  161.9248 N.ar    1  UNL1       -0.2434
     16 O         138.4224  138.3619  163.4636 O.3     1  UNL1       -0.4668
     17 C         138.7289  137.7420  164.7946 C.3     1  UNL1        0.2527
     18 C         138.8074  138.6010  166.0219 C.3     1  UNL1        0.2526
     19 O         138.5792  140.0799  165.9180 O.3     1  UNL1       -0.4683
     20 C         144.3727  143.8915  163.0038 C.3     1  UNL1        0.0047
     21 C         144.8410  143.0431  164.1489 C.3     1  UNL1        0.0265
     22 C         142.4111  141.7033  167.6915 C.ar    1  UNL1        0.1388
     23 C         141.9653  140.2751  167.7982 C.ar    1  UNL1        0.0384
     24 C         142.3295  139.2935  166.7241 C.ar    1  UNL1        0.0222
     25 C         143.1395  139.7400  165.5432 C.ar    1  UNL1        0.0812
     26 N         143.5036  138.7584  164.4691 N.ar    1  UNL1       -0.2439
     27 C         144.3136  139.2050  163.2882 C.ar    1  UNL1        0.0985
     28 C         144.7594  140.6333  163.1815 C.ar    1  UNL1        0.0164
     29 C         144.3952  141.6149  164.2556 C.ar    1  UNL1       -0.0191
     30 C         143.5852  141.1683  165.4365 C.ar    1  UNL1        0.0168
     31 C         143.2211  142.1499  166.5107 C.ar    1  UNL1        0.0381
     32 C         140.6099  143.0511  168.9912 C.3     1  UNL1        0.2525
     33 O         142.0469  142.6849  168.7657 O.3     1  UNL1       -0.4714
@<TRIPOS>BOND
     1    32    33    1
     2    33    22    1
     3    22    23   ar
     4    23    24   ar
     5    24    25   ar
     6    25    26   ar
     7    26    27   ar
     8    27    28   ar
     9    28    29   ar
    10    29    21    1
    11    21    20    1
    12     1    20    1
    13     1     2    1
    14     2     3    1
    15     3     4    1
    16     4     7    1
    17     7     9    1
    18     9    10    1
    19    10    11   ar
    20    11    12   ar
    21    12    13   ar
    22    13    14   ar
    23    14    15   ar
    24    13    16    1
    25    16    17    1
    26    17    18    1
    27    18    19    1
    28     4     5    1
    29     5     6    1
    30    29    30   ar
    31    30    31   ar
    32    31    22   ar
    33    30    25   ar
    34     6     1    1
    35    15    10   ar
    36    19    12    1
    37     7     8    1
@<TRIPOS>MOLECULE
*****
 33 37 0 0 0
SMALL
GASTEIGER

@<TRIPOS>ATOM
      1 C         141.4728  138.2779  164.5357 C.3     1  UNL1        0.0004
      2 C         141.5944  138.0544  163.0574 C.3     1  UNL1        0.0014
      3 C         140.3670  138.0566  162.1951 C.3     1  UNL1        0.0157
      4 C         139.0180  138.2823  162.8111 C.3     1  UNL1        0.0543
      5 C         138.8964  138.5058  164.2893 C.3     1  UNL1        0.0157
      6 C         140.1239  138.5036  165.1516 C.3     1  UNL1        0.0014
      7 N         137.7907  138.2845  161.9487 N.3     1  UNL1       -0.2935
      8 H         136.9907  138.3726  162.5754 H       1  UNL1        0.1236
      9 C         137.6239  139.3281  160.8843 C.3     1  UNL1        0.1152
     10 C         137.9719  140.7580  161.1747 C.ar    1  UNL1        0.0782
     11 C         138.9629  141.4792  160.3099 C.ar    1  UNL1        0.0562
     12 C         139.3109  142.9091  160.6003 C.ar    1  UNL1        0.1752
     13 C         138.6680  143.6177  161.7555 C.ar    1  UNL1        0.1914
     14 C         137.6770  142.8965  162.6203 C.ar    1  UNL1        0.1384
     15 N         137.3290  141.4667  162.3299 N.ar    1  UNL1       -0.2434
     16 O         139.0160  145.0477  162.0459 O.3     1  UNL1       -0.4668
     17 C         140.0070  145.7689  161.1812 C.3     1  UNL1        0.2527
     18 C         140.6500  145.0602  160.0260 C.3     1  UNL1        0.2526
     19 O         140.3019  143.6303  159.7356 O.3     1  UNL1       -0.4683
     20 C         142.7001  138.2756  165.3980 C.3     1  UNL1        0.0047
     21 C         143.2486  139.5684  165.9253 C.3     1  UNL1        0.0265
     22 C         140.9478  143.3677  165.2032 C.ar    1  UNL1        0.1388
     23 C         141.4816  144.3987  164.2535 C.ar    1  UNL1        0.0384
     24 C         142.7824  144.1634  163.5446 C.ar    1  UNL1        0.0222
     25 C         143.5493  142.8970  163.7852 C.ar    1  UNL1        0.0812
     26 N         144.8501  142.6617  163.0763 N.ar    1  UNL1       -0.2439
     27 C         145.6170  141.3953  163.3170 C.ar    1  UNL1        0.0985
     28 C         145.0832  140.3641  164.2667 C.ar    1  UNL1        0.0164
     29 C         143.7824  140.5995  164.9756 C.ar    1  UNL1       -0.0191
     30 C         143.0155  141.8660  164.7349 C.ar    1  UNL1        0.0168
     31 C         141.7147  142.1013  165.4439 C.ar    1  UNL1        0.0381
     32 C         138.7657  144.7456  165.5027 C.3     1  UNL1        0.2525
     33 O         139.6470  143.6030  165.9121 O.3     1  UNL1       -0.4714
@<TRIPOS>BOND
     1    32    33    1
     2    33    22    1
     3    22    23   ar
     4    23    24   ar
     5    24    25   ar
     6    25    26   ar
     7    26    27   ar
     8    27    28   ar
     9    28    29   ar
    10    29    21    1
    11    21    20    1
    12     1    20    1
    13     1     2    1
    14     2     3    1
    15     3     4    1
    16     4     7    1
    17     7     9    1
    18     9    10    1
    19    10    11   ar
    20    11    12   ar
    21    12    13   ar
    22    13    14   ar
    23    14    15   ar
    24    13    16    1
    25    16    17    1
    26    17    18    1
    27    18    19    1
    28     4     5    1
    29     5     6    1
    30    29    30   ar
    31    30    31   ar
    32    31    22   ar
    33    30    25   ar
    34     6     1    1
    35    15    10   ar
    36    19    12    1
    37     7     8    1
@<TRIPOS>MOLECULE
*****
 33 37 0 0 0
SMALL
GASTEIGER

@<TRIPOS>ATOM
      1 C         139.5045  137.7524  164.5699 C.3     1  UNL1        0.0004
      2 C         140.9628  137.6168  164.8937 C.3     1  UNL1        0.0014
      3 C         141.9764  137.5822  163.7886 C.3     1  UNL1        0.0157
      4 C         141.5317  137.6832  162.3596 C.3     1  UNL1        0.0543
      5 C         140.0734  137.8188  162.0357 C.3     1  UNL1        0.0157
      6 C         139.0597  137.8534  163.1409 C.3     1  UNL1        0.0014
      7 N         142.5453  137.6486  161.2544 N.3     1  UNL1       -0.2935
      8 H         142.0711  137.9682  160.4099 H       1  UNL1        0.1236
      9 C         143.8091  138.4482  161.3705 C.3     1  UNL1        0.1152
     10 C         143.7418  139.9379  161.5322 C.ar    1  UNL1        0.0782
     11 C         143.9593  140.5565  162.8813 C.ar    1  UNL1        0.0562
     12 C         143.8920  142.0463  163.0429 C.ar    1  UNL1        0.1752
     13 C         143.6072  142.9174  161.8555 C.ar    1  UNL1        0.1914
     14 C         143.3897  142.2989  160.5064 C.ar    1  UNL1        0.1384
     15 N         143.4570  140.8091  160.3448 N.ar    1  UNL1       -0.2434
     16 O         143.5400  144.4072  162.0172 O.3     1  UNL1       -0.4668
     17 C         143.7574  145.0258  163.3663 C.3     1  UNL1        0.2527
     18 C         144.0422  144.1546  164.5537 C.3     1  UNL1        0.2526
     19 O         144.1095  142.6649  164.3920 O.3     1  UNL1       -0.4683
     20 C         138.4908  137.7870  165.6750 C.3     1  UNL1        0.0047
     21 C         138.0902  139.0978  166.2845 C.3     1  UNL1        0.0265
     22 C         138.4959  142.5146  163.3844 C.ar    1  UNL1        0.1388
     23 C         139.5265  143.5789  163.6188 C.ar    1  UNL1        0.0384
     24 C         140.4220  143.5043  164.8199 C.ar    1  UNL1        0.0222
     25 C         140.2868  142.3654  165.7866 C.ar    1  UNL1        0.0812
     26 N         141.1822  142.2908  166.9876 N.ar    1  UNL1       -0.2439
     27 C         141.0470  141.1519  167.9543 C.ar    1  UNL1        0.0985
     28 C         140.0163  140.0875  167.7200 C.ar    1  UNL1        0.0164
     29 C         139.1209  140.1621  166.5189 C.ar    1  UNL1       -0.0191
     30 C         139.2561  141.3011  165.5522 C.ar    1  UNL1        0.0168
     31 C         138.3607  141.3757  164.3511 C.ar    1  UNL1        0.0381
     32 C         138.1728  142.4083  160.8087 C.3     1  UNL1        0.2525
     33 O         137.6004  142.5892  162.1833 O.3     1  UNL1       -0.4714
@<TRIPOS>BOND
     1    32    33    1
     2    33    22    1
     3    22    23   ar
     4    23    24   ar
     5    24    25   ar
     6    25    26   ar
     7    26    27   ar
     8    27    28   ar
     9    28    29   ar
    10    29    21    1
    11    21    20    1
    12     1    20    1
    13     1     2    1
    14     2     3    1
    15     3     4    1
    16     4     7    1
    17     7     9    1
    18     9    10    1
    19    10    11   ar
    20    11    12   ar
    21    12    13   ar
    22    13    14   ar
    23    14    15   ar
    24    13    16    1
    25    16    17    1
    26    17    18    1
    27    18    19    1
    28     4     5    1
    29     5     6    1
    30    29    30   ar
    31    30    31   ar
    32    31    22   ar
    33    30    25   ar
    34     6     1    1
    35    15    10   ar
    36    19    12    1
    37     7     8    1
@<TRIPOS>MOLECULE
*****
 33 37 0 0 0
SMALL
GASTEIGER

@<TRIPOS>ATOM
      1 C         137.9207  143.0077  162.9628 C.3     1  UNL1        0.0004
      2 C         138.1519  142.7481  161.5036 C.3     1  UNL1        0.0014
      3 C         138.1236  141.3435  160.9781 C.3     1  UNL1        0.0157
      4 C         137.8642  140.1984  161.9117 C.3     1  UNL1        0.0543
      5 C         137.6330  140.4580  163.3709 C.3     1  UNL1        0.0157
      6 C         137.6612  141.8627  163.8964 C.3     1  UNL1        0.0014
      7 N         137.8359  138.7938  161.3862 N.3     1  UNL1       -0.2935
      8 H         137.2781  138.8100  160.5324 H       1  UNL1        0.1236
      9 C         139.1188  138.0921  161.0519 C.3     1  UNL1        0.1152
     10 C         140.3177  138.2589  161.9378 C.ar    1  UNL1        0.0782
     11 C         141.3833  139.2517  161.5788 C.ar    1  UNL1        0.0562
     12 C         142.5822  139.4185  162.4647 C.ar    1  UNL1        0.1752
     13 C         142.7156  138.5923  163.7095 C.ar    1  UNL1        0.1914
     14 C         141.6501  137.5994  164.0685 C.ar    1  UNL1        0.1384
     15 N         140.4512  137.4327  163.1827 N.ar    1  UNL1       -0.2434
     16 O         143.9146  138.7590  164.5955 O.3     1  UNL1       -0.4668
     17 C         144.9801  139.7519  164.2365 C.3     1  UNL1        0.2527
     18 C         144.8466  140.5781  162.9916 C.3     1  UNL1        0.2526
     19 O         143.6477  140.4113  162.1057 O.3     1  UNL1       -0.4683
     20 C         137.9489  144.4123  163.4883 C.3     1  UNL1        0.0047
     21 C         138.9260  144.7921  164.5613 C.3     1  UNL1        0.0265
     22 C         140.7621  141.6626  167.2230 C.ar    1  UNL1        0.1388
     23 C         142.2125  141.3099  167.0756 C.ar    1  UNL1        0.0384
     24 C         143.0510  142.0003  166.0411 C.ar    1  UNL1        0.0222
     25 C         142.4389  143.0435  165.1538 C.ar    1  UNL1        0.0812
     26 N         143.2774  143.7339  164.1192 N.ar    1  UNL1       -0.2439
     27 C         142.6653  144.7770  163.2320 C.ar    1  UNL1        0.0985
     28 C         141.2148  145.1298  163.3793 C.ar    1  UNL1        0.0164
     29 C         140.3764  144.4394  164.4139 C.ar    1  UNL1       -0.0191
     30 C         140.9885  143.3962  165.3012 C.ar    1  UNL1        0.0168
     31 C         140.1501  142.7058  166.3358 C.ar    1  UNL1        0.0381
     32 C         140.5775  140.1313  169.3136 C.3     1  UNL1        0.2525
     33 O         139.9237  140.9722  168.2576 O.3     1  UNL1       -0.4714
@<TRIPOS>BOND
     1    32    33    1
     2    33    22    1
     3    22    23   ar
     4    23    24   ar
     5    24    25   ar
     6    25    26   ar
     7    26    27   ar
     8    27    28   ar
     9    28    29   ar
    10    29    21    1
    11    21    20    1
    12     1    20    1
    13     1     2    1
    14     2     3    1
    15     3     4    1
    16     4     7    1
    17     7     9    1
    18     9    10    1
    19    10    11   ar
    20    11    12   ar
    21    12    13   ar
    22    13    14   ar
    23    14    15   ar
    24    13    16    1
    25    16    17    1
    26    17    18    1
    27    18    19    1
    28     4     5    1
    29     5     6    1
    30    29    30   ar
    31    30    31   ar
    32    31    22   ar
    33    30    25   ar
    34     6     1    1
    35    15    10   ar
    36    19    12    1
    37     7     8    1
@<TRIPOS>MOLECULE
*****
 33 37 0 0 0
SMALL
GASTEIGER

@<TRIPOS>ATOM
      1 C         140.6858  144.8021  162.9347 C.3     1  UNL1        0.0004
      2 C         141.0288  144.2620  161.5780 C.3     1  UNL1        0.0014
      3 C         142.4284  143.8111  161.2821 C.3     1  UNL1        0.0157
      4 C         143.4852  143.9003  162.3429 C.3     1  UNL1        0.0543
      5 C         143.1423  144.4404  163.6996 C.3     1  UNL1        0.0157
      6 C         141.7426  144.8913  163.9955 C.3     1  UNL1        0.0014
      7 N         144.8849  143.4493  162.0470 N.3     1  UNL1       -0.2935
      8 H         145.4614  143.7416  162.8360 H       1  UNL1        0.1236
      9 C         145.1714  141.9951  161.8165 C.3     1  UNL1        0.1152
     10 C         144.4537  140.9525  162.6214 C.ar    1  UNL1        0.0782
     11 C         143.2560  140.2551  162.0477 C.ar    1  UNL1        0.0562
     12 C         142.5383  139.2125  162.8526 C.ar    1  UNL1        0.1752
     13 C         143.0183  138.8673  164.2312 C.ar    1  UNL1        0.1914
     14 C         144.2160  139.5647  164.8048 C.ar    1  UNL1        0.1384
     15 N         144.9337  140.6073  164.0000 N.ar    1  UNL1       -0.2434
     16 O         142.3006  137.8247  165.0361 O.3     1  UNL1       -0.4668
     17 C         141.1029  137.1272  164.4625 C.3     1  UNL1        0.2527
     18 C         140.6228  137.4725  163.0838 C.3     1  UNL1        0.2526
     19 O         141.3406  138.5151  162.2790 O.3     1  UNL1       -0.4683
     20 C         139.2862  145.2530  163.2307 C.3     1  UNL1        0.0047
     21 C         138.4664  144.5295  164.2576 C.3     1  UNL1        0.0265
     22 C         140.5009  142.0995  167.4523 C.ar    1  UNL1        0.1388
     23 C         140.4151  140.6023  167.4245 C.ar    1  UNL1        0.0384
     24 C         139.6512  139.9150  166.3317 C.ar    1  UNL1        0.0222
     25 C         138.9731  140.7249  165.2668 C.ar    1  UNL1        0.0812
     26 N         138.2092  140.0376  164.1741 N.ar    1  UNL1       -0.2439
     27 C         137.5311  140.8476  163.1092 C.ar    1  UNL1        0.0985
     28 C         137.6168  142.3449  163.1370 C.ar    1  UNL1        0.0164
     29 C         138.3807  143.0322  164.2298 C.ar    1  UNL1       -0.0191
     30 C         139.0588  142.2222  165.2947 C.ar    1  UNL1        0.0168
     31 C         139.8227  142.9095  166.3874 C.ar    1  UNL1        0.0381
     32 C         140.5319  143.5633  169.5986 C.3     1  UNL1        0.2525
     33 O         141.2648  142.7868  168.5451 O.3     1  UNL1       -0.4714
@<TRIPOS>BOND
     1    32    33    1
     2    33    22    1
     3    22    23   ar
     4    23    24   ar
     5    24    25   ar
     6    25    26   ar
     7    26    27   ar
     8    27    28   ar
     9    28    29   ar
    10    29    21    1
    11    21    20    1
    12     1    20    1
    13     1     2    1
    14     2     3    1
    15     3     4    1
    16     4     7    1
    17     7     9    1
    18     9    10    1
    19    10    11   ar
    20    11    12   ar
    21    12    13   ar
    22    13    14   ar
    23    14    15   ar
    24    13    16    1
    25    16    17    1
    26    17    18    1
    27    18    19    1
    28     4     5    1
    29     5     6    1
    30    29    30   ar
    31    30    31   ar
    32    31    22   ar
    33    30    25   ar
    34     6     1    1
    35    15    10   ar
    36    19    12    1
    37     7     8    1
@<TRIPOS>MOLECULE
*****
 33 37 0 0 0
SMALL
GASTEIGER

@<TRIPOS>ATOM
      1 C         139.4127  137.7324  164.4890 C.3     1  UNL1        0.0004
      2 C         140.8449  137.4194  164.8067 C.3     1  UNL1        0.0014
      3 C         141.8610  137.3564  163.7052 C.3     1  UNL1        0.0157
      4 C         141.4450  137.6065  162.2858 C.3     1  UNL1        0.0543
      5 C         140.0129  137.9195  161.9681 C.3     1  UNL1        0.0157
      6 C         138.9967  137.9825  163.0698 C.3     1  UNL1        0.0014
      7 N         142.4611  137.5435  161.1843 N.3     1  UNL1       -0.2935
      8 H         142.0491  138.0106  160.3766 H       1  UNL1        0.1236
      9 C         143.8217  138.1428  161.3838 C.3     1  UNL1        0.1152
     10 C         143.9606  139.4897  162.0291 C.ar    1  UNL1        0.0782
     11 C         143.1743  140.6558  161.5078 C.ar    1  UNL1        0.0562
     12 C         143.3133  142.0028  162.1532 C.ar    1  UNL1        0.1752
     13 C         144.2386  142.1835  163.3198 C.ar    1  UNL1        0.1914
     14 C         145.0250  141.0174  163.8411 C.ar    1  UNL1        0.1384
     15 N         144.8860  139.6705  163.1958 N.ar    1  UNL1       -0.2434
     16 O         144.3776  143.5305  163.9653 O.3     1  UNL1       -0.4668
     17 C         143.5912  144.6966  163.4440 C.3     1  UNL1        0.2527
     18 C         142.6658  144.5158  162.2773 C.3     1  UNL1        0.2526
     19 O         142.5269  143.1689  161.6320 O.3     1  UNL1       -0.4683
     20 C         138.3966  137.7954  165.5906 C.3     1  UNL1        0.0047
     21 C         138.1693  139.0814  166.3287 C.3     1  UNL1        0.0265
     22 C         142.2291  140.3671  167.7831 C.ar    1  UNL1        0.1388
     23 C         142.8386  141.6405  167.2764 C.ar    1  UNL1        0.0384
     24 C         142.0949  142.4854  166.2849 C.ar    1  UNL1        0.0222
     25 C         140.7417  142.0569  165.8001 C.ar    1  UNL1        0.0812
     26 N         139.9980  142.9017  164.8086 N.ar    1  UNL1       -0.2439
     27 C         138.6447  142.4732  164.3238 C.ar    1  UNL1        0.0985
     28 C         138.0351  141.1997  164.8305 C.ar    1  UNL1        0.0164
     29 C         138.7788  140.3548  165.8220 C.ar    1  UNL1       -0.0191
     30 C         140.1321  140.7834  166.3068 C.ar    1  UNL1        0.0168
     31 C         140.8758  139.9385  167.2983 C.ar    1  UNL1        0.0381
     32 C         142.3851  139.2645  170.1304 C.3     1  UNL1        0.2525
     33 O         142.9728  139.5222  168.7746 O.3     1  UNL1       -0.4714
@<TRIPOS>BOND
     1    32    33    1
     2    33    22    1
     3    22    23   ar
     4    23    24   ar
     5    24    25   ar
     6    25    26   ar
     7    26    27   ar
     8    27    28   ar
     9    28    29   ar
    10    29    21    1
    11    21    20    1
    12     1    20    1
    13     1     2    1
    14     2     3    1
    15     3     4    1
    16     4     7    1
    17     7     9    1
    18     9    10    1
    19    10    11   ar
    20    11    12   ar
    21    12    13   ar
    22    13    14   ar
    23    14    15   ar
    24    13    16    1
    25    16    17    1
    26    17    18    1
    27    18    19    1
    28     4     5    1
    29     5     6    1
    30    29    30   ar
    31    30    31   ar
    32    31    22   ar
    33    30    25   ar
    34     6     1    1
    35    15    10   ar
    36    19    12    1
    37     7     8    1
@<TRIPOS>MOLECULE
*****
 33 37 0 0 0
SMALL
GASTEIGER

@<TRIPOS>ATOM
      1 C         142.9468  141.1481  166.4033 C.3     1  UNL1        0.0004
      2 C         143.1144  139.6575  166.3953 C.3     1  UNL1        0.0014
      3 C         143.6540  138.9700  165.1762 C.3     1  UNL1        0.0157
      4 C         144.0260  139.7731  163.9651 C.3     1  UNL1        0.0543
      5 C         143.8584  141.2637  163.9731 C.3     1  UNL1        0.0157
      6 C         143.3187  141.9512  165.1923 C.3     1  UNL1        0.0014
      7 N         144.5656  139.0857  162.7460 N.3     1  UNL1       -0.2935
      8 H         145.4339  138.6291  163.0255 H       1  UNL1        0.1236
      9 C         143.7397  138.0508  162.0412 C.3     1  UNL1        0.1152
     10 C         142.2522  138.2176  161.9432 C.ar    1  UNL1        0.0782
     11 C         141.6678  139.1537  160.9273 C.ar    1  UNL1        0.0562
     12 C         140.1802  139.3205  160.8294 C.ar    1  UNL1        0.1752
     13 C         139.2772  138.5512  161.7473 C.ar    1  UNL1        0.1914
     14 C         139.8617  137.6151  162.7633 C.ar    1  UNL1        0.1384
     15 N         141.3491  137.4483  162.8612 N.ar    1  UNL1       -0.2434
     16 O         137.7897  138.7180  161.6494 O.3     1  UNL1       -0.4668
     17 C         137.2053  139.6541  160.6335 C.3     1  UNL1        0.2527
     18 C         138.1084  140.4234  159.7155 C.3     1  UNL1        0.2526
     19 O         139.5958  140.2566  159.8134 O.3     1  UNL1       -0.4683
     20 C         142.4072  141.8356  167.6223 C.3     1  UNL1        0.0047
     21 C         140.9337  142.0847  167.7525 C.3     1  UNL1        0.0265
     22 C         139.2360  143.8709  163.9873 C.ar    1  UNL1        0.1388
     23 C         138.2662  143.0852  163.1555 C.ar    1  UNL1        0.0384
     24 C         137.8622  141.7040  163.5787 C.ar    1  UNL1        0.0222
     25 C         138.4281  141.1085  164.8338 C.ar    1  UNL1        0.0812
     26 N         138.0242  139.7273  165.2570 N.ar    1  UNL1       -0.2439
     27 C         138.5901  139.1319  166.5121 C.ar    1  UNL1        0.0985
     28 C         139.5599  139.9177  167.3440 C.ar    1  UNL1        0.0164
     29 C         139.9639  141.2989  166.9207 C.ar    1  UNL1       -0.0191
     30 C         139.3979  141.8943  165.6656 C.ar    1  UNL1        0.0168
     31 C         139.8019  143.2755  165.2424 C.ar    1  UNL1        0.0381
     32 C         139.5335  145.6564  162.1235 C.3     1  UNL1        0.2525
     33 O         139.6400  145.2521  163.5641 O.3     1  UNL1       -0.4714
@<TRIPOS>BOND
     1    32    33    1
     2    33    22    1
     3    22    23   ar
     4    23    24   ar
     5    24    25   ar
     6    25    26   ar
     7    26    27   ar
     8    27    28   ar
     9    28    29   ar
    10    29    21    1
    11    21    20    1
    12     1    20    1
    13     1     2    1
    14     2     3    1
    15     3     4    1
    16     4     7    1
    17     7     9    1
    18     9    10    1
    19    10    11   ar
    20    11    12   ar
    21    12    13   ar
    22    13    14   ar
    23    14    15   ar
    24    13    16    1
    25    16    17    1
    26    17    18    1
    27    18    19    1
    28     4     5    1
    29     5     6    1
    30    29    30   ar
    31    30    31   ar
    32    31    22   ar
    33    30    25   ar
    34     6     1    1
    35    15    10   ar
    36    19    12    1
    37     7     8    1
@<TRIPOS>MOLECULE
*****
 33 37 0 0 0
SMALL
GASTEIGER

@<TRIPOS>ATOM
      1 C         141.7286  138.1473  164.2791 C.3     1  UNL1        0.0004
      2 C         141.8270  138.6573  162.8719 C.3     1  UNL1        0.0014
      3 C         143.0365  139.4304  162.4372 C.3     1  UNL1        0.0157
      4 C         144.1479  139.6938  163.4097 C.3     1  UNL1        0.0543
      5 C         144.0495  139.1839  164.8169 C.3     1  UNL1        0.0157
      6 C         142.8398  138.4106  165.2516 C.3     1  UNL1        0.0014
      7 N         145.3574  140.4669  162.9749 N.3     1  UNL1       -0.2935
      8 H         145.4198  140.3707  161.9614 H       1  UNL1        0.1236
      9 C         145.4596  141.9325  163.2778 C.3     1  UNL1        0.1152
     10 C         144.2534  142.8131  163.1379 C.ar    1  UNL1        0.0782
     11 C         143.7702  143.2123  161.7751 C.ar    1  UNL1        0.0562
     12 C         142.5640  144.0929  161.6353 C.ar    1  UNL1        0.1752
     13 C         141.8410  144.5744  162.8581 C.ar    1  UNL1        0.1914
     14 C         142.3242  144.1752  164.2209 C.ar    1  UNL1        0.1384
     15 N         143.5304  143.2946  164.3608 N.ar    1  UNL1       -0.2434
     16 O         140.6347  145.4550  162.7183 O.3     1  UNL1       -0.4668
     17 C         140.1515  145.8542  161.3555 C.3     1  UNL1        0.2527
     18 C         140.8746  145.3727  160.1326 C.3     1  UNL1        0.2526
     19 O         142.0808  144.4921  160.2725 O.3     1  UNL1       -0.4683
     20 C         140.5190  137.3742  164.7139 C.3     1  UNL1        0.0047
     21 C         139.3720  138.0831  165.3710 C.3     1  UNL1        0.0265
     22 C         137.9008  141.3585  162.6586 C.ar    1  UNL1        0.1388
     23 C         138.0430  142.7938  163.0704 C.ar    1  UNL1        0.0384
     24 C         138.6755  143.1373  164.3864 C.ar    1  UNL1        0.0222
     25 C         139.1659  142.0455  165.2905 C.ar    1  UNL1        0.0812
     26 N         139.7985  142.3891  166.6065 N.ar    1  UNL1       -0.2439
     27 C         140.2889  141.2973  167.5107 C.ar    1  UNL1        0.0985
     28 C         140.1467  139.8619  167.0988 C.ar    1  UNL1        0.0164
     29 C         139.5141  139.5184  165.7829 C.ar    1  UNL1       -0.0191
     30 C         139.0237  140.6102  164.8787 C.ar    1  UNL1        0.0168
     31 C         138.3912  140.2667  163.5627 C.ar    1  UNL1        0.0381
     32 C         137.5266  139.6786  160.7123 C.3     1  UNL1        0.2525
     33 O         137.2682  141.0149  161.3426 O.3     1  UNL1       -0.4714
@<TRIPOS>BOND
     1    32    33    1
     2    33    22    1
     3    22    23   ar
     4    23    24   ar
     5    24    25   ar
     6    25    26   ar
     7    26    27   ar
     8    27    28   ar
     9    28    29   ar
    10    29    21    1
    11    21    20    1
    12     1    20    1
    13     1     2    1
    14     2     3    1
    15     3     4    1
    16     4     7    1
    17     7     9    1
    18     9    10    1
    19    10    11   ar
    20    11    12   ar
    21    12    13   ar
    22    13    14   ar
    23    14    15   ar
    24    13    16    1
    25    16    17    1
    26    17    18    1
    27    18    19    1
    28     4     5    1
    29     5     6    1
    30    29    30   ar
    31    30    31   ar
    32    31    22   ar
    33    30    25   ar
    34     6     1    1
    35    15    10   ar
    36    19    12    1
    37     7     8    1
