@<TRIPOS>MOLECULE
*****
 38 42 0 0 0
SMALL
GASTEIGER

@<TRIPOS>ATOM
      1 C         142.1269  138.7095  164.6115 C.ar    1  UNL1        0.0655
      2 C         142.6168  138.4098  163.2258 C.ar    1  UNL1        0.0337
      3 C         143.7774  139.1726  162.6591 C.ar    1  UNL1        0.0862
      4 C         144.4482  140.2352  163.4783 C.ar    1  UNL1        0.1534
      5 C         143.9583  140.5349  164.8641 C.ar    1  UNL1        0.0539
      6 C         142.7977  139.7720  165.4306 C.ar    1  UNL1        0.0647
      7 N         142.3079  140.0718  166.8163 N.pl3   1  UNL1       -0.3036
      8 C         141.3588  141.2103  167.0465 C.3     1  UNL1        0.1082
      9 C         140.8691  141.5100  168.4323 C.3     1  UNL1        0.0938
     10 N         141.3284  140.6711  169.5878 N.3     1  UNL1       -0.2686
     11 C         140.8386  140.9709  170.9736 C.3     1  UNL1        0.0897
     12 C         142.2774  139.5326  169.3577 C.3     1  UNL1        0.0938
     13 C         142.7672  139.2329  167.9719 C.3     1  UNL1        0.1082
     14 C         139.5916  138.5462  165.1548 C.2     1  UNL1        0.2497
     15 O         139.2929  139.2367  164.8911 O.2     1  UNL1       -0.2698
     16 N         140.9663  137.9466  165.1780 N.am    1  UNL1       -0.2794
     17 H         141.1068  137.0523  165.5651 H       1  UNL1        0.1552
     18 C         137.6490  138.3505  166.8690 C.2     1  UNL1        0.0048
     19 C         138.4309  137.7834  165.7213 C.2     1  UNL1        0.0580
     20 N         144.2672  138.8729  161.2734 N.pl3   1  UNL1       -0.2801
     21 H         144.9620  138.1895  161.1340 H       1  UNL1        0.1552
     22 C         143.6985  139.6144  160.1001 C.ar    1  UNL1        0.2207
     23 N         143.6443  138.9577  158.7526 N.ar    1  UNL1       -0.2120
     24 C         143.0755  139.6992  157.5793 C.ar    1  UNL1        0.1034
     25 C         142.5610  141.0974  157.7534 C.ar    1  UNL1        0.0400
     26 C         142.6152  141.7541  159.1010 C.ar    1  UNL1        0.0873
     27 N         143.1840  141.0126  160.2743 N.ar    1  UNL1       -0.2135
     28 C         142.1007  143.1523  159.2752 C.2     1  UNL1        0.0380
     29 C         142.4113  144.3227  158.3900 C.2     1  UNL1        0.0999
     30 N         141.6878  145.5193  158.9329 N.2     1  UNL1       -0.2478
     31 C         140.9300  145.0884  160.1536 C.2     1  UNL1        0.0634
     32 C         140.0407  145.8391  161.0999 C.3     1  UNL1        0.0717
     33 C         139.4065  145.1269  162.2577 C.2     1  UNL1       -0.0198
     34 C         139.6617  143.6640  162.4692 C.2     1  UNL1       -0.0041
     35 C         140.5511  142.9133  161.5230 C.2     1  UNL1        0.0010
     36 C         141.1852  143.6255  160.3652 C.2     1  UNL1        0.0168
     37 O         145.6088  140.9981  162.9117 O.3     1  UNL1       -0.4701
     38 C         145.4093  142.3916  162.3938 C.3     1  UNL1        0.2525
@<TRIPOS>BOND
     1    18    19    2
     2    19    14    1
     3    14    15    2
     4    14    16   am
     5    16     1    1
     6     1     2   ar
     7     2     3   ar
     8     3    20    1
     9    20    22    1
    10    22    23   ar
    11    23    24   ar
    12    24    25   ar
    13    25    26   ar
    14    26    28    1
    15    28    29    2
    16    29    30    1
    17    30    31    2
    18    31    32    1
    19    32    33    1
    20    33    34    2
    21    34    35    1
    22    35    36    2
    23    26    27   ar
    24     3     4   ar
    25     4    37    1
    26    37    38    1
    27     4     5   ar
    28     5     6   ar
    29     6     7    1
    30     7     8    1
    31     8     9    1
    32     9    10    1
    33    10    11    1
    34    10    12    1
    35    12    13    1
    36     6     1   ar
    37    13     7    1
    38    27    22   ar
    39    36    28    1
    40    36    31    1
    41    16    17    1
    42    20    21    1
@<TRIPOS>MOLECULE
*****
 38 42 0 0 0
SMALL
GASTEIGER

@<TRIPOS>ATOM
      1 C         141.2066  138.6908  160.8703 C.ar    1  UNL1        0.0655
      2 C         141.6546  138.7319  159.4394 C.ar    1  UNL1        0.0337
      3 C         140.6711  139.0570  158.3545 C.ar    1  UNL1        0.0862
      4 C         139.2394  139.3409  158.7006 C.ar    1  UNL1        0.1534
      5 C         138.7914  139.2998  160.1316 C.ar    1  UNL1        0.0539
      6 C         139.7750  138.9747  161.2164 C.ar    1  UNL1        0.0647
      7 N         139.3269  138.9336  162.6473 N.pl3   1  UNL1       -0.3036
      8 C         138.9386  140.2016  163.3484 C.3     1  UNL1        0.1082
      9 C         138.4905  140.1604  164.7793 C.3     1  UNL1        0.0938
     10 N         138.4307  138.8512  165.5091 N.3     1  UNL1       -0.2686
     11 C         137.9825  138.8101  166.9401 C.3     1  UNL1        0.0897
     12 C         138.8189  137.5833  164.8081 C.3     1  UNL1        0.0938
     13 C         139.2670  137.6245  163.3771 C.3     1  UNL1        0.1082
     14 C         142.9966  139.4603  162.5889 C.2     1  UNL1        0.2497
     15 O         143.0382  140.2494  162.4839 O.2     1  UNL1       -0.2698
     16 N         142.1902  138.3657  161.9552 N.am    1  UNL1       -0.2794
     17 H         142.3065  137.4340  162.2512 H       1  UNL1        0.1552
     18 C         145.0383  140.1300  164.0495 C.2     1  UNL1        0.0048
     19 C         143.9803  139.1353  163.6737 C.2     1  UNL1        0.0580
     20 N         141.1192  139.0981  156.9236 N.pl3   1  UNL1       -0.2801
     21 H         140.7488  139.7740  156.3110 H       1  UNL1        0.1552
     22 C         142.1316  138.1095  156.4260 C.ar    1  UNL1        0.2207
     23 N         143.4583  138.5875  155.9149 N.ar    1  UNL1       -0.2120
     24 C         144.4707  137.5988  155.4173 C.ar    1  UNL1        0.1034
     25 C         144.1564  136.1322  155.4307 C.ar    1  UNL1        0.0400
     26 C         142.8295  135.6542  155.9418 C.ar    1  UNL1        0.0873
     27 N         141.8172  136.6428  156.4394 N.ar    1  UNL1       -0.2135
     28 C         142.5152  134.1875  155.9552 C.2     1  UNL1        0.0380
     29 C         141.3441  133.5307  155.2865 C.2     1  UNL1        0.0999
     30 N         141.4219  132.0575  155.5577 N.2     1  UNL1       -0.2478
     31 C         142.6411  131.8038  156.3940 C.2     1  UNL1        0.0634
     32 C         143.2232  130.5442  156.9635 C.3     1  UNL1        0.0717
     33 C         144.4810  130.6010  157.7787 C.2     1  UNL1       -0.0198
     34 C         145.1567  131.9175  158.0243 C.2     1  UNL1       -0.0041
     35 C         144.5746  133.1771  157.4548 C.2     1  UNL1        0.0010
     36 C         143.3167  133.1203  156.6396 C.2     1  UNL1        0.0168
     37 O         138.2558  139.6660  157.6157 O.3     1  UNL1       -0.4701
     38 C         137.7461  141.0682  157.4610 C.3     1  UNL1        0.2525
@<TRIPOS>BOND
     1    18    19    2
     2    19    14    1
     3    14    15    2
     4    14    16   am
     5    16     1    1
     6     1     2   ar
     7     2     3   ar
     8     3    20    1
     9    20    22    1
    10    22    23   ar
    11    23    24   ar
    12    24    25   ar
    13    25    26   ar
    14    26    28    1
    15    28    29    2
    16    29    30    1
    17    30    31    2
    18    31    32    1
    19    32    33    1
    20    33    34    2
    21    34    35    1
    22    35    36    2
    23    26    27   ar
    24     3     4   ar
    25     4    37    1
    26    37    38    1
    27     4     5   ar
    28     5     6   ar
    29     6     7    1
    30     7     8    1
    31     8     9    1
    32     9    10    1
    33    10    11    1
    34    10    12    1
    35    12    13    1
    36     6     1   ar
    37    13     7    1
    38    27    22   ar
    39    36    28    1
    40    36    31    1
    41    16    17    1
    42    20    21    1
@<TRIPOS>MOLECULE
*****
 38 42 0 0 0
SMALL
GASTEIGER

@<TRIPOS>ATOM
      1 C         138.8842  140.1253  159.1833 C.ar    1  UNL1        0.0655
      2 C         138.1278  140.7100  160.3391 C.ar    1  UNL1        0.0337
      3 C         138.0832  139.9836  161.6508 C.ar    1  UNL1        0.0862
      4 C         138.7950  138.6725  161.8065 C.ar    1  UNL1        0.1534
      5 C         139.5514  138.0877  160.6506 C.ar    1  UNL1        0.0539
      6 C         139.5960  138.8142  159.3390 C.ar    1  UNL1        0.0647
      7 N         140.3524  138.2295  158.1832 N.pl3   1  UNL1       -0.3036
      8 C         141.8509  138.2920  158.1589 C.3     1  UNL1        0.1082
      9 C         142.6072  137.7072  157.0030 C.3     1  UNL1        0.0938
     10 N         141.8651  137.0599  155.8716 N.3     1  UNL1       -0.2686
     11 C         142.6215  136.4751  154.7157 C.3     1  UNL1        0.0897
     12 C         140.3666  136.9974  155.8959 C.3     1  UNL1        0.0938
     13 C         139.6103  137.5822  157.0518 C.3     1  UNL1        0.1082
     14 C         137.7278  140.8514  156.9730 C.2     1  UNL1        0.2497
     15 O         136.9998  140.5305  157.0218 O.2     1  UNL1       -0.2698
     16 N         138.9288  140.8518  157.8717 N.am    1  UNL1       -0.2794
     17 H         139.7463  141.3288  157.6007 H       1  UNL1        0.1552
     18 C         136.8163  142.7023  155.3939 C.2     1  UNL1        0.0048
     19 C         137.7723  141.5778  155.6614 C.2     1  UNL1        0.0580
     20 N         137.3268  140.5683  162.8066 N.pl3   1  UNL1       -0.2801
     21 H         136.4318  140.2262  163.0328 H       1  UNL1        0.1552
     22 C         137.9339  141.6744  163.6177 C.ar    1  UNL1        0.2207
     23 N         137.2714  143.0192  163.6667 N.ar    1  UNL1       -0.2120
     24 C         137.8785  144.1253  164.4779 C.ar    1  UNL1        0.1034
     25 C         139.1482  143.8865  165.2401 C.ar    1  UNL1        0.0400
     26 C         139.8108  142.5416  165.1911 C.ar    1  UNL1        0.0873
     27 N         139.2036  141.4356  164.3799 N.ar    1  UNL1       -0.2135
     28 C         141.0805  142.3028  165.9533 C.2     1  UNL1        0.0380
     29 C         142.3574  141.7538  165.3893 C.2     1  UNL1        0.0999
     30 N         143.3622  141.6828  166.5007 N.2     1  UNL1       -0.2478
     31 C         142.7063  142.1879  167.7516 C.2     1  UNL1        0.0634
     32 C         143.2109  142.3483  169.1550 C.3     1  UNL1        0.0717
     33 C         142.3053  142.8920  170.2200 C.2     1  UNL1       -0.0198
     34 C         140.8951  143.2752  169.8817 C.2     1  UNL1       -0.0041
     35 C         140.3905  143.1147  168.4783 C.2     1  UNL1        0.0010
     36 C         141.2961  142.5710  167.4133 C.2     1  UNL1        0.0168
     37 O         138.7504  137.9460  163.1181 O.3     1  UNL1       -0.4701
     38 C         139.9559  137.9350  164.0107 C.3     1  UNL1        0.2525
@<TRIPOS>BOND
     1    18    19    2
     2    19    14    1
     3    14    15    2
     4    14    16   am
     5    16     1    1
     6     1     2   ar
     7     2     3   ar
     8     3    20    1
     9    20    22    1
    10    22    23   ar
    11    23    24   ar
    12    24    25   ar
    13    25    26   ar
    14    26    28    1
    15    28    29    2
    16    29    30    1
    17    30    31    2
    18    31    32    1
    19    32    33    1
    20    33    34    2
    21    34    35    1
    22    35    36    2
    23    26    27   ar
    24     3     4   ar
    25     4    37    1
    26    37    38    1
    27     4     5   ar
    28     5     6   ar
    29     6     7    1
    30     7     8    1
    31     8     9    1
    32     9    10    1
    33    10    11    1
    34    10    12    1
    35    12    13    1
    36     6     1   ar
    37    13     7    1
    38    27    22   ar
    39    36    28    1
    40    36    31    1
    41    16    17    1
    42    20    21    1
@<TRIPOS>MOLECULE
*****
 38 42 0 0 0
SMALL
GASTEIGER

@<TRIPOS>ATOM
      1 C         142.9150  138.7801  158.2667 C.ar    1  UNL1        0.0655
      2 C         142.6364  137.9512  159.4854 C.ar    1  UNL1        0.0337
      3 C         143.1265  138.4041  160.8288 C.ar    1  UNL1        0.0862
      4 C         143.8953  139.6860  160.9535 C.ar    1  UNL1        0.1534
      5 C         144.1740  140.5150  159.7347 C.ar    1  UNL1        0.0539
      6 C         143.6838  140.0621  158.3914 C.ar    1  UNL1        0.0647
      7 N         143.9626  140.8911  157.1728 N.pl3   1  UNL1       -0.3036
      8 C         145.2126  140.6583  156.3771 C.3     1  UNL1        0.1082
      9 C         145.4913  141.4873  155.1585 C.3     1  UNL1        0.0938
     10 N         144.5199  142.5492  154.7356 N.3     1  UNL1       -0.2686
     11 C         144.7986  143.3782  153.5169 C.3     1  UNL1        0.0897
     12 C         143.2698  142.7820  155.5312 C.3     1  UNL1        0.0938
     13 C         142.9912  141.9529  156.7499 C.3     1  UNL1        0.1082
     14 C         143.1917  137.2917  156.1553 C.2     1  UNL1        0.2497
     15 O         143.8604  136.8809  156.2952 O.2     1  UNL1       -0.2698
     16 N         142.4249  138.3271  156.9233 N.am    1  UNL1       -0.2794
     17 H         141.6000  138.7094  156.5457 H       1  UNL1        0.1552
     18 C         142.8289  135.3981  154.4138 C.2     1  UNL1        0.0048
     19 C         142.7017  136.8387  154.8120 C.2     1  UNL1        0.0580
     20 N         142.8477  137.5751  162.0474 N.pl3   1  UNL1       -0.2801
     21 H         143.4542  136.8389  162.2911 H       1  UNL1        0.1552
     22 C         141.6450  137.8677  162.8946 C.ar    1  UNL1        0.2207
     23 N         141.2331  136.9062  163.9697 N.ar    1  UNL1       -0.2120
     24 C         140.0304  137.1989  164.8169 C.ar    1  UNL1        0.1034
     25 C         139.2396  138.4530  164.5891 C.ar    1  UNL1        0.0400
     26 C         139.6516  139.4145  163.5139 C.ar    1  UNL1        0.0873
     27 N         140.8542  139.1218  162.6667 N.ar    1  UNL1       -0.2135
     28 C         138.8608  140.6686  163.2860 C.2     1  UNL1        0.0380
     29 C         137.8201  140.8742  162.2255 C.2     1  UNL1        0.0999
     30 N         137.2880  142.2700  162.3628 N.2     1  UNL1       -0.2478
     31 C         137.9999  142.9269  163.5081 C.2     1  UNL1        0.0634
     32 C         137.8885  144.2985  164.1051 C.3     1  UNL1        0.0717
     33 C         138.7492  144.6803  165.2727 C.2     1  UNL1       -0.0198
     34 C         139.7213  143.6905  165.8433 C.2     1  UNL1       -0.0041
     35 C         139.8326  142.3190  165.2463 C.2     1  UNL1        0.0010
     36 C         138.9719  141.9372  164.0787 C.2     1  UNL1        0.0168
     37 O         144.3854  140.1390  162.2968 O.3     1  UNL1       -0.4701
     38 C         144.8379  141.5558  162.4915 C.3     1  UNL1        0.2525
@<TRIPOS>BOND
     1    18    19    2
     2    19    14    1
     3    14    15    2
     4    14    16   am
     5    16     1    1
     6     1     2   ar
     7     2     3   ar
     8     3    20    1
     9    20    22    1
    10    22    23   ar
    11    23    24   ar
    12    24    25   ar
    13    25    26   ar
    14    26    28    1
    15    28    29    2
    16    29    30    1
    17    30    31    2
    18    31    32    1
    19    32    33    1
    20    33    34    2
    21    34    35    1
    22    35    36    2
    23    26    27   ar
    24     3     4   ar
    25     4    37    1
    26    37    38    1
    27     4     5   ar
    28     5     6   ar
    29     6     7    1
    30     7     8    1
    31     8     9    1
    32     9    10    1
    33    10    11    1
    34    10    12    1
    35    12    13    1
    36     6     1   ar
    37    13     7    1
    38    27    22   ar
    39    36    28    1
    40    36    31    1
    41    16    17    1
    42    20    21    1
@<TRIPOS>MOLECULE
*****
 38 42 0 0 0
SMALL
GASTEIGER

@<TRIPOS>ATOM
      1 C         139.6913  139.5717  160.9127 C.ar    1  UNL1        0.0655
      2 C         139.8140  138.6222  159.7580 C.ar    1  UNL1        0.0337
      3 C         139.3859  139.0508  158.3857 C.ar    1  UNL1        0.0862
      4 C         138.8352  140.4289  158.1681 C.ar    1  UNL1        0.1534
      5 C         138.7125  141.3785  159.3229 C.ar    1  UNL1        0.0539
      6 C         139.1405  140.9499  160.6951 C.ar    1  UNL1        0.0647
      7 N         139.0178  141.8995  161.8497 N.pl3   1  UNL1       -0.3036
      8 C         137.8370  141.8118  162.7707 C.3     1  UNL1        0.1082
      9 C         137.7144  142.7615  163.9253 C.3     1  UNL1        0.0938
     10 N         138.7725  143.7987  164.1589 N.3     1  UNL1       -0.2686
     11 C         138.6497  144.7484  165.3136 C.3     1  UNL1        0.0897
     12 C         139.9532  143.8864  163.2381 C.3     1  UNL1        0.0938
     13 C         140.0759  142.9367  162.0834 C.3     1  UNL1        0.1082
     14 C         139.3224  138.1152  163.0322 C.2     1  UNL1        0.2497
     15 O         138.6634  137.6981  162.8673 O.2     1  UNL1       -0.2698
     16 N         140.1193  139.1431  162.2849 N.am    1  UNL1       -0.2794
     17 H         140.9232  139.5364  162.6951 H       1  UNL1        0.1552
     18 C         141.1324  137.1466  164.6247 C.2     1  UNL1        0.0048
     19 C         139.7504  137.6865  164.4044 C.2     1  UNL1        0.0580
     20 N         139.5087  138.1012  157.2311 N.pl3   1  UNL1       -0.2801
     21 H         138.7004  137.7101  156.8273 H       1  UNL1        0.1552
     22 C         140.8628  137.7474  156.6916 C.ar    1  UNL1        0.2207
     23 N         141.9369  138.7918  156.6173 N.ar    1  UNL1       -0.2120
     24 C         143.2910  138.4380  156.0778 C.ar    1  UNL1        0.1034
     25 C         143.5711  137.0397  155.6126 C.ar    1  UNL1        0.0400
     26 C         142.4970  135.9952  155.6869 C.ar    1  UNL1        0.0873
     27 N         141.1430  136.3491  156.2264 N.ar    1  UNL1       -0.2135
     28 C         142.7772  134.5970  155.2218 C.2     1  UNL1        0.0380
     29 C         142.3379  133.9964  153.9193 C.2     1  UNL1        0.0999
     30 N         142.8350  132.5821  153.8700 N.2     1  UNL1       -0.2478
     31 C         143.5815  132.3084  155.1420 C.2     1  UNL1        0.0634
     32 C         144.2891  131.0863  155.6474 C.3     1  UNL1        0.0717
     33 C         144.9609  131.1094  156.9883 C.2     1  UNL1       -0.0198
     34 C         144.9252  132.3547  157.8238 C.2     1  UNL1       -0.0041
     35 C         144.2176  133.5768  157.3183 C.2     1  UNL1        0.0010
     36 C         143.5457  133.5537  155.9774 C.2     1  UNL1        0.0168
     37 O         138.4072  140.8576  156.7959 O.3     1  UNL1       -0.4701
     38 C         136.9496  140.9004  156.4440 C.3     1  UNL1        0.2525
@<TRIPOS>BOND
     1    18    19    2
     2    19    14    1
     3    14    15    2
     4    14    16   am
     5    16     1    1
     6     1     2   ar
     7     2     3   ar
     8     3    20    1
     9    20    22    1
    10    22    23   ar
    11    23    24   ar
    12    24    25   ar
    13    25    26   ar
    14    26    28    1
    15    28    29    2
    16    29    30    1
    17    30    31    2
    18    31    32    1
    19    32    33    1
    20    33    34    2
    21    34    35    1
    22    35    36    2
    23    26    27   ar
    24     3     4   ar
    25     4    37    1
    26    37    38    1
    27     4     5   ar
    28     5     6   ar
    29     6     7    1
    30     7     8    1
    31     8     9    1
    32     9    10    1
    33    10    11    1
    34    10    12    1
    35    12    13    1
    36     6     1   ar
    37    13     7    1
    38    27    22   ar
    39    36    28    1
    40    36    31    1
    41    16    17    1
    42    20    21    1
@<TRIPOS>MOLECULE
*****
 38 42 0 0 0
SMALL
GASTEIGER

@<TRIPOS>ATOM
      1 C         142.2520  139.3043  162.7062 C.ar    1  UNL1        0.0655
      2 C         142.6435  138.7667  161.3617 C.ar    1  UNL1        0.0337
      3 C         143.3335  139.6560  160.3702 C.ar    1  UNL1        0.0862
      4 C         143.6320  141.0830  160.7232 C.ar    1  UNL1        0.1534
      5 C         143.2404  141.6207  162.0678 C.ar    1  UNL1        0.0539
      6 C         142.5504  140.7313  163.0592 C.ar    1  UNL1        0.0647
      7 N         142.1589  141.2690  164.4036 N.pl3   1  UNL1       -0.3036
      8 C         140.8752  142.0285  164.5629 C.3     1  UNL1        0.1082
      9 C         140.4838  142.5661  165.9074 C.3     1  UNL1        0.0938
     10 N         141.3760  142.3443  167.0926 N.3     1  UNL1       -0.2686
     11 C         140.9844  142.8820  168.4371 C.3     1  UNL1        0.0897
     12 C         142.6596  141.5848  166.9334 C.3     1  UNL1        0.0938
     13 C         143.0511  141.0471  165.5889 C.3     1  UNL1        0.1082
     14 C         140.0705  138.4725  163.8458 C.2     1  UNL1        0.2497
     15 O         139.4952  138.8990  163.4957 O.2     1  UNL1       -0.2698
     16 N         141.5620  138.4149  163.6976 N.am    1  UNL1       -0.2794
     17 H         142.0880  137.7934  164.2510 H       1  UNL1        0.1552
     18 C         138.4350  138.1718  165.8421 C.2     1  UNL1        0.0048
     19 C         139.3804  137.5832  164.8373 C.2     1  UNL1        0.0580
     20 N         143.7250  139.1183  159.0257 N.pl3   1  UNL1       -0.2801
     21 H         144.6488  139.2258  158.7026 H       1  UNL1        0.1552
     22 C         142.7093  138.4168  158.1737 C.ar    1  UNL1        0.2207
     23 N         141.3233  138.9760  158.0452 N.ar    1  UNL1       -0.2120
     24 C         140.3076  138.2745  157.1931 C.ar    1  UNL1        0.1034
     25 C         140.6777  137.0137  156.4695 C.ar    1  UNL1        0.0400
     26 C         142.0637  136.4545  156.5980 C.ar    1  UNL1        0.0873
     27 N         143.0794  137.1561  157.4500 N.ar    1  UNL1       -0.2135
     28 C         142.4339  135.1938  155.8744 C.2     1  UNL1        0.0380
     29 C         141.9953  134.8093  154.4924 C.2     1  UNL1        0.0999
     30 N         142.5980  133.4741  154.1697 N.2     1  UNL1       -0.2478
     31 C         143.4090  133.0335  155.3521 C.2     1  UNL1        0.0634
     32 C         144.2267  131.8018  155.6056 C.3     1  UNL1        0.0717
     33 C         144.9429  131.6330  156.9126 C.2     1  UNL1       -0.0198
     34 C         144.8415  132.6959  157.9662 C.2     1  UNL1       -0.0041
     35 C         144.0238  133.9276  157.7127 C.2     1  UNL1        0.0010
     36 C         143.3075  134.0964  156.4057 C.2     1  UNL1        0.0168
     37 O         144.3219  141.9724  159.7318 O.3     1  UNL1       -0.4701
     38 C         143.5137  142.7970  158.7743 C.3     1  UNL1        0.2525
@<TRIPOS>BOND
     1    18    19    2
     2    19    14    1
     3    14    15    2
     4    14    16   am
     5    16     1    1
     6     1     2   ar
     7     2     3   ar
     8     3    20    1
     9    20    22    1
    10    22    23   ar
    11    23    24   ar
    12    24    25   ar
    13    25    26   ar
    14    26    28    1
    15    28    29    2
    16    29    30    1
    17    30    31    2
    18    31    32    1
    19    32    33    1
    20    33    34    2
    21    34    35    1
    22    35    36    2
    23    26    27   ar
    24     3     4   ar
    25     4    37    1
    26    37    38    1
    27     4     5   ar
    28     5     6   ar
    29     6     7    1
    30     7     8    1
    31     8     9    1
    32     9    10    1
    33    10    11    1
    34    10    12    1
    35    12    13    1
    36     6     1   ar
    37    13     7    1
    38    27    22   ar
    39    36    28    1
    40    36    31    1
    41    16    17    1
    42    20    21    1
@<TRIPOS>MOLECULE
*****
 38 42 0 0 0
SMALL
GASTEIGER

@<TRIPOS>ATOM
      1 C         143.6302  142.7734  159.5323 C.ar    1  UNL1        0.0655
      2 C         144.3434  142.4650  160.8153 C.ar    1  UNL1        0.0337
      3 C         143.8908  143.1002  162.0966 C.ar    1  UNL1        0.0862
      4 C         142.7248  144.0439  162.0948 C.ar    1  UNL1        0.1534
      5 C         142.0116  144.3524  160.8117 C.ar    1  UNL1        0.0539
      6 C         142.4643  143.7172  159.5305 C.ar    1  UNL1        0.0647
      7 N         141.7510  144.0257  158.2475 N.pl3   1  UNL1       -0.3036
      8 C         142.1824  145.1942  157.4117 C.3     1  UNL1        0.1082
      9 C         141.4691  145.5026  156.1288 C.3     1  UNL1        0.0938
     10 N         140.3243  144.6426  155.6816 N.3     1  UNL1       -0.2686
     11 C         139.6110  144.9512  154.3986 C.3     1  UNL1        0.0897
     12 C         139.8928  143.4742  156.5174 C.3     1  UNL1        0.0938
     13 C         140.6062  143.1657  157.8004 C.3     1  UNL1        0.1082
     14 C         145.4636  142.4043  157.7290 C.2     1  UNL1        0.2497
     15 O         146.0783  142.8416  157.9866 O.2     1  UNL1       -0.2698
     16 N         144.0828  142.1382  158.2510 N.am    1  UNL1       -0.2794
     17 H         143.4737  141.5466  157.7528 H       1  UNL1        0.1552
     18 C         147.2979  142.0336  155.9266 C.2     1  UNL1        0.0048
     19 C         145.9164  141.7690  156.4478 C.2     1  UNL1        0.0580
     20 N         144.6040  142.7917  163.3795 N.pl3   1  UNL1       -0.2801
     21 H         145.2659  143.4254  163.7394 H       1  UNL1        0.1552
     22 C         144.3089  141.5176  164.1141 C.ar    1  UNL1        0.2207
     23 N         145.2145  140.3326  163.9541 N.ar    1  UNL1       -0.2120
     24 C         144.9194  139.0585  164.6887 C.ar    1  UNL1        0.1034
     25 C         143.7187  138.9695  165.5834 C.ar    1  UNL1        0.0400
     26 C         142.8131  140.1546  165.7434 C.ar    1  UNL1        0.0873
     27 N         143.1082  141.4286  165.0088 N.ar    1  UNL1       -0.2135
     28 C         141.6124  140.0655  166.6381 C.2     1  UNL1        0.0380
     29 C         140.2201  139.7052  166.2119 C.2     1  UNL1        0.0999
     30 N         139.3405  139.7382  167.4265 N.2     1  UNL1       -0.2478
     31 C         140.1891  140.1189  168.6033 C.2     1  UNL1        0.0634
     32 C         139.8647  140.3075  170.0556 C.3     1  UNL1        0.0717
     33 C         140.9445  140.6984  171.0206 C.2     1  UNL1       -0.0198
     34 C         142.3486  140.9008  170.5333 C.2     1  UNL1       -0.0041
     35 C         142.6730  140.7122  169.0810 C.2     1  UNL1        0.0010
     36 C         141.5933  140.3212  168.1160 C.2     1  UNL1        0.0168
     37 O         142.2722  144.6792  163.3760 O.3     1  UNL1       -0.4701
     38 C         140.8088  144.8786  163.6382 C.3     1  UNL1        0.2525
@<TRIPOS>BOND
     1    18    19    2
     2    19    14    1
     3    14    15    2
     4    14    16   am
     5    16     1    1
     6     1     2   ar
     7     2     3   ar
     8     3    20    1
     9    20    22    1
    10    22    23   ar
    11    23    24   ar
    12    24    25   ar
    13    25    26   ar
    14    26    28    1
    15    28    29    2
    16    29    30    1
    17    30    31    2
    18    31    32    1
    19    32    33    1
    20    33    34    2
    21    34    35    1
    22    35    36    2
    23    26    27   ar
    24     3     4   ar
    25     4    37    1
    26    37    38    1
    27     4     5   ar
    28     5     6   ar
    29     6     7    1
    30     7     8    1
    31     8     9    1
    32     9    10    1
    33    10    11    1
    34    10    12    1
    35    12    13    1
    36     6     1   ar
    37    13     7    1
    38    27    22   ar
    39    36    28    1
    40    36    31    1
    41    16    17    1
    42    20    21    1
@<TRIPOS>MOLECULE
*****
 38 42 0 0 0
SMALL
GASTEIGER

@<TRIPOS>ATOM
      1 C         141.0604  140.6542  165.1807 C.ar    1  UNL1        0.0655
      2 C         140.4294  139.8627  164.0738 C.ar    1  UNL1        0.0337
      3 C         139.3531  138.8650  164.3842 C.ar    1  UNL1        0.0862
      4 C         138.9079  138.6589  165.8017 C.ar    1  UNL1        0.1534
      5 C         139.5389  139.4505  166.9087 C.ar    1  UNL1        0.0539
      6 C         140.6151  140.4481  166.5981 C.ar    1  UNL1        0.0647
      7 N         141.2460  141.2397  167.7051 N.pl3   1  UNL1       -0.3036
      8 C         142.5857  140.8366  168.2461 C.3     1  UNL1        0.1082
      9 C         143.2166  141.6282  169.3531 C.3     1  UNL1        0.0938
     10 N         142.5077  142.8228  169.9191 N.3     1  UNL1       -0.2686
     11 C         143.1386  143.6144  171.0261 C.3     1  UNL1        0.0897
     12 C         141.1680  143.2259  169.3782 C.3     1  UNL1        0.0938
     13 C         140.5371  142.4343  168.2711 C.3     1  UNL1        0.1082
     14 C         143.5210  141.1816  164.5349 C.2     1  UNL1        0.2497
     15 O         143.8626  140.4639  164.4743 O.2     1  UNL1       -0.2698
     16 N         142.1366  141.6519  164.8701 N.am    1  UNL1       -0.2794
     17 H         141.9344  142.6152  164.8863 H       1  UNL1        0.1552
     18 C         145.9134  141.7157  163.6739 C.2     1  UNL1        0.0048
     19 C         144.5973  142.1792  164.2243 C.2     1  UNL1        0.0580
     20 N         138.7222  138.0735  163.2773 N.pl3   1  UNL1       -0.2801
     21 H         138.2978  137.2068  163.4719 H       1  UNL1        0.1552
     22 C         138.7380  138.6024  161.8737 C.ar    1  UNL1        0.2207
     23 N         137.6466  139.5184  161.4051 N.ar    1  UNL1       -0.2120
     24 C         137.6624  140.0474  160.0016 C.ar    1  UNL1        0.1034
     25 C         138.7696  139.6603  159.0666 C.ar    1  UNL1        0.0400
     26 C         139.8611  138.7442  159.5352 C.ar    1  UNL1        0.0873
     27 N         139.8453  138.2153  160.9387 N.ar    1  UNL1       -0.2135
     28 C         140.9684  138.3571  158.6003 C.2     1  UNL1        0.0380
     29 C         142.4375  138.5070  158.8634 C.2     1  UNL1        0.0999
     30 N         143.1779  137.9947  157.6638 N.2     1  UNL1       -0.2478
     31 C         142.1664  137.5280  156.6592 C.2     1  UNL1        0.0634
     32 C         142.3125  136.9281  155.2922 C.3     1  UNL1        0.0717
     33 C         141.0929  136.5522  154.5040 C.2     1  UNL1       -0.0198
     34 C         139.7273  136.7762  155.0827 C.2     1  UNL1       -0.0041
     35 C         139.5813  137.3761  156.4497 C.2     1  UNL1        0.0010
     36 C         140.8008  137.7520  157.2380 C.2     1  UNL1        0.0168
     37 O         137.8316  137.6613  166.1123 O.3     1  UNL1       -0.4701
     38 C         137.0780  137.7494  167.4062 C.3     1  UNL1        0.2525
@<TRIPOS>BOND
     1    18    19    2
     2    19    14    1
     3    14    15    2
     4    14    16   am
     5    16     1    1
     6     1     2   ar
     7     2     3   ar
     8     3    20    1
     9    20    22    1
    10    22    23   ar
    11    23    24   ar
    12    24    25   ar
    13    25    26   ar
    14    26    28    1
    15    28    29    2
    16    29    30    1
    17    30    31    2
    18    31    32    1
    19    32    33    1
    20    33    34    2
    21    34    35    1
    22    35    36    2
    23    26    27   ar
    24     3     4   ar
    25     4    37    1
    26    37    38    1
    27     4     5   ar
    28     5     6   ar
    29     6     7    1
    30     7     8    1
    31     8     9    1
    32     9    10    1
    33    10    11    1
    34    10    12    1
    35    12    13    1
    36     6     1   ar
    37    13     7    1
    38    27    22   ar
    39    36    28    1
    40    36    31    1
    41    16    17    1
    42    20    21    1
@<TRIPOS>MOLECULE
*****
 38 42 0 0 0
SMALL
GASTEIGER

@<TRIPOS>ATOM
      1 C         141.1246  139.2417  160.9182 C.ar    1  UNL1        0.0655
      2 C         141.8947  138.4199  159.9275 C.ar    1  UNL1        0.0337
      3 C         142.4605  139.0646  158.6969 C.ar    1  UNL1        0.0862
      4 C         142.2561  140.5311  158.4571 C.ar    1  UNL1        0.1534
      5 C         141.4859  141.3529  159.4479 C.ar    1  UNL1        0.0539
      6 C         140.9202  140.7082  160.6784 C.ar    1  UNL1        0.0647
      7 N         140.1500  141.5300  161.6690 N.pl3   1  UNL1       -0.3036
      8 C         140.8426  142.0970  162.8727 C.3     1  UNL1        0.1082
      9 C         140.0723  142.9188  163.8633 C.3     1  UNL1        0.0938
     10 N         138.6096  143.1737  163.6503 N.3     1  UNL1       -0.2686
     11 C         137.8394  143.9956  164.6410 C.3     1  UNL1        0.0897
     12 C         137.9170  142.6067  162.4466 C.3     1  UNL1        0.0938
     13 C         138.6873  141.7848  161.4560 C.3     1  UNL1        0.1082
     14 C         141.4790  138.0351  163.1916 C.2     1  UNL1        0.2497
     15 O         142.2715  137.9883  163.2637 O.2     1  UNL1       -0.2698
     16 N         140.5588  138.5969  162.1488 N.am    1  UNL1       -0.2794
     17 H         139.5836  138.5425  162.2719 H       1  UNL1        0.1552
     18 C         139.4855  137.6377  164.8098 C.2     1  UNL1        0.0048
     19 C         140.9133  137.3903  164.4222 C.2     1  UNL1        0.0580
     20 N         143.2306  138.2427  157.7063 N.pl3   1  UNL1       -0.2801
     21 H         144.2146  138.2745  157.6995 H       1  UNL1        0.1552
     22 C         142.5017  137.3725  156.7259 C.ar    1  UNL1        0.2207
     23 N         141.6227  137.9933  155.6809 N.ar    1  UNL1       -0.2120
     24 C         140.8937  137.1230  154.7005 C.ar    1  UNL1        0.1034
     25 C         141.0438  135.6319  154.7650 C.ar    1  UNL1        0.0400
     26 C         141.9228  135.0111  155.8101 C.ar    1  UNL1        0.0873
     27 N         142.6517  135.8814  156.7904 N.ar    1  UNL1       -0.2135
     28 C         142.0729  133.5200  155.8746 C.2     1  UNL1        0.0380
     29 C         141.1868  132.5147  155.2006 C.2     1  UNL1        0.0999
     30 N         141.7017  131.1459  155.5340 N.2     1  UNL1       -0.2478
     31 C         142.9059  131.3051  156.4139 C.2     1  UNL1        0.0634
     32 C         143.8232  130.3036  157.0507 C.3     1  UNL1        0.0717
     33 C         144.9699  130.7695  157.8980 C.2     1  UNL1       -0.0198
     34 C         145.1994  132.2368  158.1086 C.2     1  UNL1       -0.0041
     35 C         144.2821  133.2383  157.4718 C.2     1  UNL1        0.0010
     36 C         143.1354  132.7724  156.6245 C.2     1  UNL1        0.0168
     37 O         142.8219  141.1758  157.2265 O.3     1  UNL1       -0.4701
     38 C         143.4193  142.5494  157.3067 C.3     1  UNL1        0.2525
@<TRIPOS>BOND
     1    18    19    2
     2    19    14    1
     3    14    15    2
     4    14    16   am
     5    16     1    1
     6     1     2   ar
     7     2     3   ar
     8     3    20    1
     9    20    22    1
    10    22    23   ar
    11    23    24   ar
    12    24    25   ar
    13    25    26   ar
    14    26    28    1
    15    28    29    2
    16    29    30    1
    17    30    31    2
    18    31    32    1
    19    32    33    1
    20    33    34    2
    21    34    35    1
    22    35    36    2
    23    26    27   ar
    24     3     4   ar
    25     4    37    1
    26    37    38    1
    27     4     5   ar
    28     5     6   ar
    29     6     7    1
    30     7     8    1
    31     8     9    1
    32     9    10    1
    33    10    11    1
    34    10    12    1
    35    12    13    1
    36     6     1   ar
    37    13     7    1
    38    27    22   ar
    39    36    28    1
    40    36    31    1
    41    16    17    1
    42    20    21    1
