@<TRIPOS>MOLECULE
*****
 36 39 0 0 0
SMALL
GASTEIGER

@<TRIPOS>ATOM
      1 C         137.9500  142.3196  163.4544 C.ar    1  UNL1        0.2311
      2 N         138.1049  143.7842  163.1698 N.ar    1  UNL1       -0.1892
      3 C         138.9344  144.6413  164.0793 C.ar    1  UNL1        0.2029
      4 N         139.6089  144.0338  165.2735 N.ar    1  UNL1       -0.2046
      5 C         139.4540  142.5692  165.5581 C.ar    1  UNL1        0.1715
      6 C         138.6245  141.7122  164.6486 C.ar    1  UNL1        0.1098
      7 C         138.6534  140.3095  165.1795 C.ar    1  UNL1        0.1283
      8 N         139.5008  140.2997  166.4171 N.ar    1  UNL1       -0.1620
      9 N         139.9956  141.6963  166.6511 N.ar    1  UNL1       -0.2120
     10 C         140.8772  142.1418  167.7800 C.ar    1  UNL1        0.0883
     11 C         140.2810  142.8374  168.9677 C.ar    1  UNL1        0.0192
     12 C         141.1626  143.2829  170.0965 C.ar    1  UNL1        0.0015
     13 C         142.6405  143.0328  170.0377 C.ar    1  UNL1        0.0000
     14 C         143.2366  142.3373  168.8499 C.ar    1  UNL1        0.0054
     15 C         142.3550  141.8918  167.7211 C.ar    1  UNL1        0.0891
     16 C         142.9513  141.1962  166.5334 C.3     1  UNL1        0.4200
     17 F         143.5475  140.5007  165.3457 F       1  UNL1       -0.1658
     18 F         142.8522  139.8835  167.2523 F       1  UNL1       -0.1658
     19 F         143.0504  142.5089  165.8144 F       1  UNL1       -0.1658
     20 O         137.1204  141.4625  162.5448 O.3     1  UNL1       -0.4543
     21 C         137.7790  140.6670  161.4570 C.3     1  UNL1        0.2455
     22 C         138.6906  141.3460  160.4782 C.2     1  UNL1        0.2675
     23 O         139.8573  140.6020  159.8992 O.2     1  UNL1       -0.2708
     24 N         138.4355  142.7691  160.0785 N.am    1  UNL1       -0.2664
     25 H         137.6697  143.2574  160.4585 H       1  UNL1        0.1564
     26 C         139.3470  143.4482  159.0997 C.ar    1  UNL1        0.1342
     27 C         139.1945  143.1910  157.6298 C.ar    1  UNL1        0.0342
     28 C         140.1060  143.8700  156.6511 C.ar    1  UNL1        0.0001
     29 C         141.1700  144.8063  157.1422 C.ar    1  UNL1       -0.0026
     30 C         142.0815  145.4854  156.1634 C.3     1  UNL1        0.0327
     31 C         141.3225  145.0635  158.6121 C.ar    1  UNL1        0.0960
     32 N         140.4110  144.3844  159.5909 N.ar    1  UNL1       -0.2293
     33 C         137.5261  139.1925  161.3479 C.3     1  UNL1        0.0852
     34 C         138.3589  138.2281  162.1394 C.3     1  UNL1        0.1465
     35 C         140.9076  137.7722  162.3550 C.3     1  UNL1        0.1741
     36 O         139.6359  137.6917  161.5635 O.3     1  UNL1       -0.3510
@<TRIPOS>BOND
     1    35    36    1
     2    36    34    1
     3    34    33    1
     4    21    33    1
     5    21    20    1
     6    20     1    1
     7     1     2   ar
     8     2     3   ar
     9     3     4   ar
    10     4     5   ar
    11     5     6   ar
    12     6     7   ar
    13     7     8   ar
    14     8     9   ar
    15     9    10    1
    16    10    11   ar
    17    11    12   ar
    18    12    13   ar
    19    13    14   ar
    20    14    15   ar
    21    15    16    1
    22    16    17    1
    23    16    18    1
    24    16    19    1
    25    21    22    1
    26    22    23    2
    27    22    24   am
    28    24    26    1
    29    26    27   ar
    30    27    28   ar
    31    28    29   ar
    32    29    30    1
    33    29    31   ar
    34    31    32   ar
    35     6     1   ar
    36    15    10   ar
    37    32    26   ar
    38     9     5   ar
    39    24    25    1
@<TRIPOS>MOLECULE
*****
 36 39 0 0 0
SMALL
GASTEIGER

@<TRIPOS>ATOM
      1 C         138.0408  142.4539  163.3514 C.ar    1  UNL1        0.2311
      2 N         138.2304  143.9144  163.0673 N.ar    1  UNL1       -0.1892
      3 C         139.0512  144.7588  163.9964 C.ar    1  UNL1        0.2029
      4 N         139.6824  144.1426  165.2096 N.ar    1  UNL1       -0.2046
      5 C         139.4928  142.6820  165.4937 C.ar    1  UNL1        0.1715
      6 C         138.6721  141.8377  164.5646 C.ar    1  UNL1        0.1098
      7 C         138.6609  140.4363  165.0996 C.ar    1  UNL1        0.1283
      8 N         139.4748  140.4147  166.3594 N.ar    1  UNL1       -0.1620
      9 N         139.9890  141.8026  166.6029 N.ar    1  UNL1       -0.2120
     10 C         140.8484  142.2352  167.7537 C.ar    1  UNL1        0.0883
     11 C         140.2474  143.0094  168.8892 C.ar    1  UNL1        0.0192
     12 C         141.1068  143.4419  170.0399 C.ar    1  UNL1        0.0015
     13 C         142.5673  143.1003  170.0552 C.ar    1  UNL1        0.0000
     14 C         143.1683  142.3261  168.9197 C.ar    1  UNL1        0.0054
     15 C         142.3089  141.8935  167.7690 C.ar    1  UNL1        0.0891
     16 C         142.9100  141.1193  166.6335 C.3     1  UNL1        0.4200
     17 F         143.5111  140.3451  165.4981 F       1  UNL1       -0.1658
     18 F         142.7001  139.8428  167.3927 F       1  UNL1       -0.1658
     19 F         143.1199  142.3958  165.8743 F       1  UNL1       -0.1658
     20 O         137.2200  141.6094  162.4222 O.3     1  UNL1       -0.4543
     21 C         137.8899  140.6033  161.5340 C.3     1  UNL1        0.2455
     22 C         139.0735  141.0054  160.7047 C.2     1  UNL1        0.2675
     23 O         138.8713  141.5325  159.3150 O.2     1  UNL1       -0.2708
     24 N         140.4592  140.8803  161.2652 N.am    1  UNL1       -0.2664
     25 H         140.5919  140.5343  162.1773 H       1  UNL1        0.1564
     26 C         141.6427  141.2823  160.4360 C.ar    1  UNL1        0.1342
     27 C         142.0459  142.7248  160.3541 C.ar    1  UNL1        0.0342
     28 C         143.2294  143.1268  159.5249 C.ar    1  UNL1        0.0001
     29 C         144.0098  142.0864  158.7775 C.ar    1  UNL1       -0.0026
     30 C         145.1933  142.4884  157.9483 C.3     1  UNL1        0.0327
     31 C         143.6066  140.6439  158.8594 C.ar    1  UNL1        0.0960
     32 N         142.4230  140.2419  159.6887 N.ar    1  UNL1       -0.2293
     33 C         137.3764  139.1952  161.4750 C.3     1  UNL1        0.0852
     34 C         138.3090  138.0459  161.7184 C.3     1  UNL1        0.1465
     35 C         140.7615  137.5922  162.4462 C.3     1  UNL1        0.1741
     36 O         139.4084  138.1736  162.7309 O.3     1  UNL1       -0.3510
@<TRIPOS>BOND
     1    35    36    1
     2    36    34    1
     3    34    33    1
     4    21    33    1
     5    21    20    1
     6    20     1    1
     7     1     2   ar
     8     2     3   ar
     9     3     4   ar
    10     4     5   ar
    11     5     6   ar
    12     6     7   ar
    13     7     8   ar
    14     8     9   ar
    15     9    10    1
    16    10    11   ar
    17    11    12   ar
    18    12    13   ar
    19    13    14   ar
    20    14    15   ar
    21    15    16    1
    22    16    17    1
    23    16    18    1
    24    16    19    1
    25    21    22    1
    26    22    23    2
    27    22    24   am
    28    24    26    1
    29    26    27   ar
    30    27    28   ar
    31    28    29   ar
    32    29    30    1
    33    29    31   ar
    34    31    32   ar
    35     6     1   ar
    36    15    10   ar
    37    32    26   ar
    38     9     5   ar
    39    24    25    1
@<TRIPOS>MOLECULE
*****
 36 39 0 0 0
SMALL
GASTEIGER

@<TRIPOS>ATOM
      1 C         138.1586  140.4706  164.0293 C.ar    1  UNL1        0.2311
      2 N         138.1189  139.0793  164.5883 N.ar    1  UNL1       -0.1892
      3 C         138.8298  138.7661  165.8715 C.ar    1  UNL1        0.2029
      4 N         139.5803  139.8442  166.5956 N.ar    1  UNL1       -0.2046
      5 C         139.6201  141.2355  166.0366 C.ar    1  UNL1        0.1715
      6 C         138.9092  141.5487  164.7534 C.ar    1  UNL1        0.1098
      7 C         139.1235  143.0015  164.4474 C.ar    1  UNL1        0.1283
      8 N         139.9667  143.5861  165.5415 N.ar    1  UNL1       -0.1620
      9 N         140.2736  142.4947  166.5237 N.ar    1  UNL1       -0.2120
     10 C         141.0907  142.6373  167.7735 C.ar    1  UNL1        0.0883
     11 C         140.4761  143.2270  169.0081 C.ar    1  UNL1        0.0192
     12 C         141.2932  143.3697  170.2580 C.ar    1  UNL1        0.0015
     13 C         142.7249  142.9226  170.2731 C.ar    1  UNL1        0.0000
     14 C         143.3395  142.3328  169.0385 C.ar    1  UNL1        0.0054
     15 C         142.5224  142.1902  167.7887 C.ar    1  UNL1        0.0891
     16 C         143.1371  141.6004  166.5540 C.3     1  UNL1        0.4200
     17 F         143.7518  141.0107  165.3194 F       1  UNL1       -0.1658
     18 F         143.4854  142.9767  166.0699 F       1  UNL1       -0.1658
     19 F         142.7889  140.2241  167.0381 F       1  UNL1       -0.1658
     20 O         137.4477  140.7839  162.7461 O.3     1  UNL1       -0.4543
     21 C         138.1748  140.6708  161.4390 C.3     1  UNL1        0.2455
     22 C         138.4145  141.8948  160.6057 C.2     1  UNL1        0.2675
     23 O         137.9200  143.2307  161.0756 O.2     1  UNL1       -0.2708
     24 N         139.1487  141.7829  159.3024 N.am    1  UNL1       -0.2664
     25 H         139.4732  140.9061  158.9940 H       1  UNL1        0.1564
     26 C         139.3884  143.0069  158.4691 C.ar    1  UNL1        0.1342
     27 C         138.8235  143.0924  157.0822 C.ar    1  UNL1        0.0342
     28 C         139.0632  144.3163  156.2489 C.ar    1  UNL1        0.0001
     29 C         139.8678  145.4549  156.8025 C.ar    1  UNL1       -0.0026
     30 C         140.1075  146.6788  155.9692 C.3     1  UNL1        0.0327
     31 C         140.4326  145.3694  158.1894 C.ar    1  UNL1        0.0960
     32 N         140.1929  144.1453  159.0228 N.ar    1  UNL1       -0.2293
     33 C         138.6622  139.3337  160.9651 C.3     1  UNL1        0.0852
     34 C         140.0284  138.8522  161.3547 C.3     1  UNL1        0.1465
     35 C         141.0350  137.3151  163.1917 C.3     1  UNL1        0.1741
     36 O         140.1996  137.4896  161.9581 O.3     1  UNL1       -0.3510
@<TRIPOS>BOND
     1    35    36    1
     2    36    34    1
     3    34    33    1
     4    21    33    1
     5    21    20    1
     6    20     1    1
     7     1     2   ar
     8     2     3   ar
     9     3     4   ar
    10     4     5   ar
    11     5     6   ar
    12     6     7   ar
    13     7     8   ar
    14     8     9   ar
    15     9    10    1
    16    10    11   ar
    17    11    12   ar
    18    12    13   ar
    19    13    14   ar
    20    14    15   ar
    21    15    16    1
    22    16    17    1
    23    16    18    1
    24    16    19    1
    25    21    22    1
    26    22    23    2
    27    22    24   am
    28    24    26    1
    29    26    27   ar
    30    27    28   ar
    31    28    29   ar
    32    29    30    1
    33    29    31   ar
    34    31    32   ar
    35     6     1   ar
    36    15    10   ar
    37    32    26   ar
    38     9     5   ar
    39    24    25    1
@<TRIPOS>MOLECULE
*****
 36 39 0 0 0
SMALL
GASTEIGER

@<TRIPOS>ATOM
      1 C         138.0683  141.9162  164.1261 C.ar    1  UNL1        0.2311
      2 N         138.0736  143.4104  163.9955 N.ar    1  UNL1       -0.1892
      3 C         138.9176  144.2407  164.9164 C.ar    1  UNL1        0.2029
      4 N         139.7563  143.5768  165.9680 N.ar    1  UNL1       -0.2046
      5 C         139.7510  142.0826  166.0987 C.ar    1  UNL1        0.1715
      6 C         138.9070  141.2522  165.1777 C.ar    1  UNL1        0.1098
      7 C         139.1038  139.8105  165.5422 C.ar    1  UNL1        0.1283
      8 N         140.0693  139.7499  166.6885 N.ar    1  UNL1       -0.1620
      9 N         140.4693  141.1541  167.0324 N.ar    1  UNL1       -0.2120
     10 C         141.4207  141.5588  168.1192 C.ar    1  UNL1        0.0883
     11 C         142.7627  142.1288  167.7674 C.ar    1  UNL1        0.0192
     12 C         143.7141  142.5335  168.8542 C.ar    1  UNL1        0.0015
     13 C         143.3233  142.3681  170.2929 C.ar    1  UNL1        0.0000
     14 C         141.9813  141.7981  170.6448 C.ar    1  UNL1        0.0054
     15 C         141.0299  141.3934  169.5579 C.ar    1  UNL1        0.0891
     16 C         139.6879  140.8234  169.9099 C.3     1  UNL1        0.4200
     17 F         138.3458  140.2533  170.2618 F       1  UNL1       -0.1658
     18 F         139.1246  142.2101  170.0086 F       1  UNL1       -0.1658
     19 F         140.2510  139.4366  169.8112 F       1  UNL1       -0.1658
     20 O         137.2243  141.0857  163.2051 O.3     1  UNL1       -0.4543
     21 C         137.8292  140.4852  161.9708 C.3     1  UNL1        0.2455
     22 C         138.5035  141.3661  160.9612 C.2     1  UNL1        0.2675
     23 O         138.1833  141.2175  159.5033 O.2     1  UNL1       -0.2708
     24 N         139.4980  142.3957  161.4094 N.am    1  UNL1       -0.2664
     25 H         139.7082  142.4932  162.3663 H       1  UNL1        0.1564
     26 C         140.1723  143.2766  160.3999 C.ar    1  UNL1        0.1342
     27 C         141.3804  142.7821  159.6609 C.ar    1  UNL1        0.0342
     28 C         142.0547  143.6630  158.6514 C.ar    1  UNL1        0.0001
     29 C         141.5209  145.0386  158.3808 C.ar    1  UNL1       -0.0026
     30 C         142.1952  145.9195  157.3712 C.3     1  UNL1        0.0327
     31 C         140.3129  145.5331  159.1197 C.ar    1  UNL1        0.0960
     32 N         139.6386  144.6520  160.1293 N.ar    1  UNL1       -0.2293
     33 C         137.7598  139.0038  161.7461 C.3     1  UNL1        0.0852
     34 C         138.7210  138.0925  162.4502 C.3     1  UNL1        0.1465
     35 C         141.2985  137.7915  162.3227 C.3     1  UNL1        0.1741
     36 O         139.9356  137.5840  161.7316 O.3     1  UNL1       -0.3510
@<TRIPOS>BOND
     1    35    36    1
     2    36    34    1
     3    34    33    1
     4    21    33    1
     5    21    20    1
     6    20     1    1
     7     1     2   ar
     8     2     3   ar
     9     3     4   ar
    10     4     5   ar
    11     5     6   ar
    12     6     7   ar
    13     7     8   ar
    14     8     9   ar
    15     9    10    1
    16    10    11   ar
    17    11    12   ar
    18    12    13   ar
    19    13    14   ar
    20    14    15   ar
    21    15    16    1
    22    16    17    1
    23    16    18    1
    24    16    19    1
    25    21    22    1
    26    22    23    2
    27    22    24   am
    28    24    26    1
    29    26    27   ar
    30    27    28   ar
    31    28    29   ar
    32    29    30    1
    33    29    31   ar
    34    31    32   ar
    35     6     1   ar
    36    15    10   ar
    37    32    26   ar
    38     9     5   ar
    39    24    25    1
@<TRIPOS>MOLECULE
*****
 36 39 0 0 0
SMALL
GASTEIGER

@<TRIPOS>ATOM
      1 C         144.6000  141.4845  163.4277 C.ar    1  UNL1        0.2311
      2 N         144.9383  142.8550  163.9347 N.ar    1  UNL1       -0.1892
      3 C         144.4291  143.3072  165.2712 C.ar    1  UNL1        0.2029
      4 N         143.5815  142.3887  166.1007 N.ar    1  UNL1       -0.2046
      5 C         143.2431  141.0182  165.5937 C.ar    1  UNL1        0.1715
      6 C         143.7524  140.5661  164.2572 C.ar    1  UNL1        0.1098
      7 C         143.2585  139.1694  164.0213 C.ar    1  UNL1        0.1283
      8 N         142.4441  138.7585  165.2120 N.ar    1  UNL1       -0.1620
      9 N         142.4346  139.9011  166.1838 N.ar    1  UNL1       -0.2120
     10 C         141.7387  139.9227  167.5124 C.ar    1  UNL1        0.0883
     11 C         142.4689  139.4888  168.7487 C.ar    1  UNL1        0.0192
     12 C         141.7730  139.5104  170.0773 C.ar    1  UNL1        0.0015
     13 C         140.3469  139.9660  170.1697 C.ar    1  UNL1        0.0000
     14 C         139.6167  140.4000  168.9334 C.ar    1  UNL1        0.0054
     15 C         140.3125  140.3783  167.6048 C.ar    1  UNL1        0.0891
     16 C         139.5823  140.8123  166.3685 C.3     1  UNL1        0.4200
     17 F         138.8520  141.2462  165.1323 F       1  UNL1       -0.1658
     18 F         139.0842  139.4113  166.1709 F       1  UNL1       -0.1658
     19 F         140.0803  142.2133  166.5661 F       1  UNL1       -0.1658
     20 O         145.1092  141.0323  162.0912 O.3     1  UNL1       -0.4543
     21 C         144.2903  141.2699  160.8571 C.3     1  UNL1        0.2455
     22 C         143.8256  140.1079  160.0301 C.2     1  UNL1        0.2675
     23 O         144.1853  138.7087  160.4336 O.2     1  UNL1       -0.2708
     24 N         143.0013  140.3451  158.7996 N.am    1  UNL1       -0.2664
     25 H         142.7653  141.2635  158.5347 H       1  UNL1        0.1564
     26 C         142.5366  139.1832  157.9726 C.ar    1  UNL1        0.1342
     27 C         141.0858  138.8025  157.9623 C.ar    1  UNL1        0.0342
     28 C         140.6211  137.6406  157.1353 C.ar    1  UNL1        0.0001
     29 C         141.6073  136.8593  156.3186 C.ar    1  UNL1       -0.0026
     30 C         141.1426  135.6973  155.4916 C.3     1  UNL1        0.0327
     31 C         143.0582  137.2399  156.3288 C.ar    1  UNL1        0.0960
     32 N         143.5228  138.4019  157.1559 N.ar    1  UNL1       -0.2293
     33 C         143.9361  142.6695  160.4500 C.3     1  UNL1        0.0852
     34 C         142.7282  143.3381  161.0363 C.3     1  UNL1        0.1465
     35 C         141.8653  144.9429  162.8884 C.3     1  UNL1        0.1741
     36 O         142.8833  144.5927  161.8438 O.3     1  UNL1       -0.3510
@<TRIPOS>BOND
     1    35    36    1
     2    36    34    1
     3    34    33    1
     4    21    33    1
     5    21    20    1
     6    20     1    1
     7     1     2   ar
     8     2     3   ar
     9     3     4   ar
    10     4     5   ar
    11     5     6   ar
    12     6     7   ar
    13     7     8   ar
    14     8     9   ar
    15     9    10    1
    16    10    11   ar
    17    11    12   ar
    18    12    13   ar
    19    13    14   ar
    20    14    15   ar
    21    15    16    1
    22    16    17    1
    23    16    18    1
    24    16    19    1
    25    21    22    1
    26    22    23    2
    27    22    24   am
    28    24    26    1
    29    26    27   ar
    30    27    28   ar
    31    28    29   ar
    32    29    30    1
    33    29    31   ar
    34    31    32   ar
    35     6     1   ar
    36    15    10   ar
    37    32    26   ar
    38     9     5   ar
    39    24    25    1
@<TRIPOS>MOLECULE
*****
 36 39 0 0 0
SMALL
GASTEIGER

@<TRIPOS>ATOM
      1 C         139.9569  144.8008  162.2982 C.ar    1  UNL1        0.2311
      2 N         138.4599  144.8077  162.2046 N.ar    1  UNL1       -0.1892
      3 C         137.6393  144.1309  163.2622 C.ar    1  UNL1        0.2029
      4 N         138.3156  143.4473  164.4133 N.ar    1  UNL1       -0.2046
      5 C         139.8127  143.4405  164.5069 C.ar    1  UNL1        0.1715
      6 C         140.6333  144.1172  163.4494 C.ar    1  UNL1        0.1098
      7 C         142.0804  143.9472  163.8060 C.ar    1  UNL1        0.1283
      8 N         142.1541  143.1654  165.0840 N.ar    1  UNL1       -0.1620
      9 N         140.7525  142.8522  165.5172 N.ar    1  UNL1       -0.2120
     10 C         140.3598  142.0854  166.7451 C.ar    1  UNL1        0.0883
     11 C         140.5234  142.7056  168.1010 C.ar    1  UNL1        0.0192
     12 C         140.1307  141.9388  169.3289 C.ar    1  UNL1        0.0015
     13 C         139.5742  140.5517  169.2009 C.ar    1  UNL1        0.0000
     14 C         139.4106  139.9315  167.8450 C.ar    1  UNL1        0.0054
     15 C         139.8033  140.6983  166.6171 C.ar    1  UNL1        0.0891
     16 C         139.6396  140.0781  165.2612 C.3     1  UNL1        0.4200
     17 F         139.4759  139.4578  163.9053 F       1  UNL1       -0.1658
     18 F         138.1754  140.4024  165.2895 F       1  UNL1       -0.1658
     19 F         141.1038  139.7537  165.2328 F       1  UNL1       -0.1658
     20 O         140.7776  145.4776  161.2406 O.3     1  UNL1       -0.4543
     21 C         141.1104  144.7519  159.9707 C.3     1  UNL1        0.2455
     22 C         141.1745  145.5017  158.6731 C.2     1  UNL1        0.2675
     23 O         142.4584  146.1463  158.2419 O.2     1  UNL1       -0.2708
     24 N         139.9545  145.6069  157.8067 N.am    1  UNL1       -0.2664
     25 H         139.1118  145.1839  158.0897 H       1  UNL1        0.1564
     26 C         140.0185  146.3567  156.5091 C.ar    1  UNL1        0.1342
     27 C         139.2349  147.6239  156.3357 C.ar    1  UNL1        0.0342
     28 C         139.2989  148.3737  155.0381 C.ar    1  UNL1        0.0001
     29 C         140.1466  147.8562  153.9139 C.ar    1  UNL1       -0.0026
     30 C         140.2106  148.6060  152.6163 C.3     1  UNL1        0.0327
     31 C         140.9303  146.5890  154.0873 C.ar    1  UNL1        0.0960
     32 N         140.8662  145.8392  155.3850 N.ar    1  UNL1       -0.2293
     33 C         141.3791  143.2764  159.9984 C.3     1  UNL1        0.0852
     34 C         140.4039  142.3246  159.3715 C.3     1  UNL1        0.1465
     35 C         138.1204  142.5696  158.1567 C.3     1  UNL1        0.1741
     36 O         138.9338  142.6196  159.4160 O.3     1  UNL1       -0.3510
@<TRIPOS>BOND
     1    35    36    1
     2    36    34    1
     3    34    33    1
     4    21    33    1
     5    21    20    1
     6    20     1    1
     7     1     2   ar
     8     2     3   ar
     9     3     4   ar
    10     4     5   ar
    11     5     6   ar
    12     6     7   ar
    13     7     8   ar
    14     8     9   ar
    15     9    10    1
    16    10    11   ar
    17    11    12   ar
    18    12    13   ar
    19    13    14   ar
    20    14    15   ar
    21    15    16    1
    22    16    17    1
    23    16    18    1
    24    16    19    1
    25    21    22    1
    26    22    23    2
    27    22    24   am
    28    24    26    1
    29    26    27   ar
    30    27    28   ar
    31    28    29   ar
    32    29    30    1
    33    29    31   ar
    34    31    32   ar
    35     6     1   ar
    36    15    10   ar
    37    32    26   ar
    38     9     5   ar
    39    24    25    1
@<TRIPOS>MOLECULE
*****
 36 39 0 0 0
SMALL
GASTEIGER

@<TRIPOS>ATOM
      1 C         139.7258  138.6859  162.7316 C.ar    1  UNL1        0.2311
      2 N         138.4129  139.3373  162.4124 N.ar    1  UNL1       -0.1892
      3 C         137.7539  140.2303  163.4215 C.ar    1  UNL1        0.2029
      4 N         138.4078  140.4719  164.7497 N.ar    1  UNL1       -0.2046
      5 C         139.7207  139.8204  165.0688 C.ar    1  UNL1        0.1715
      6 C         140.3797  138.9274  164.0597 C.ar    1  UNL1        0.1098
      7 C         141.6634  138.4264  164.6524 C.ar    1  UNL1        0.1283
      8 N         141.7977  139.0097  166.0278 N.ar    1  UNL1       -0.1620
      9 N         140.5971  139.8713  166.2851 N.ar    1  UNL1       -0.2120
     10 C         140.3212  140.6475  167.5387 C.ar    1  UNL1        0.0883
     11 C         139.5644  140.0086  168.6652 C.ar    1  UNL1        0.0192
     12 C         139.2886  140.7848  169.9188 C.ar    1  UNL1        0.0015
     13 C         139.7694  142.1999  170.0458 C.ar    1  UNL1        0.0000
     14 C         140.5262  142.8388  168.9193 C.ar    1  UNL1        0.0054
     15 C         140.8020  142.0626  167.6657 C.ar    1  UNL1        0.0891
     16 C         141.5588  142.7016  166.5392 C.3     1  UNL1        0.4200
     17 F         142.3155  143.3406  165.4127 F       1  UNL1       -0.1658
     18 F         142.8430  142.1626  167.0961 F       1  UNL1       -0.1658
     19 F         140.2746  143.2406  165.9823 F       1  UNL1       -0.1658
     20 O         140.3849  137.7928  161.7225 O.3     1  UNL1       -0.4543
     21 C         141.4235  138.3488  160.7940 C.3     1  UNL1        0.2455
     22 C         141.1568  139.6213  160.0459 C.2     1  UNL1        0.2675
     23 O         140.2009  139.6255  158.8900 O.2     1  UNL1       -0.2708
     24 N         141.8460  140.8896  160.4538 N.am    1  UNL1       -0.2664
     25 H         142.4734  140.8869  161.2125 H       1  UNL1        0.1564
     26 C         141.5792  142.1621  159.7058 C.ar    1  UNL1        0.1342
     27 C         142.6379  142.7463  158.8182 C.ar    1  UNL1        0.0342
     28 C         142.3712  144.0188  158.0702 C.ar    1  UNL1        0.0001
     29 C         141.0458  144.7072  158.2098 C.ar    1  UNL1       -0.0026
     30 C         140.7790  145.9797  157.4619 C.3     1  UNL1        0.0327
     31 C         139.9871  144.1230  159.0975 C.ar    1  UNL1        0.0960
     32 N         140.2539  142.8505  159.8455 N.ar    1  UNL1       -0.2293
     33 C         142.7289  137.6322  160.6135 C.3     1  UNL1        0.0852
     34 C         143.9173  138.0180  161.4435 C.3     1  UNL1        0.1465
     35 C         144.4517  140.1361  162.8500 C.3     1  UNL1        0.1741
     36 O         144.3455  139.4537  161.5184 O.3     1  UNL1       -0.3510
@<TRIPOS>BOND
     1    35    36    1
     2    36    34    1
     3    34    33    1
     4    21    33    1
     5    21    20    1
     6    20     1    1
     7     1     2   ar
     8     2     3   ar
     9     3     4   ar
    10     4     5   ar
    11     5     6   ar
    12     6     7   ar
    13     7     8   ar
    14     8     9   ar
    15     9    10    1
    16    10    11   ar
    17    11    12   ar
    18    12    13   ar
    19    13    14   ar
    20    14    15   ar
    21    15    16    1
    22    16    17    1
    23    16    18    1
    24    16    19    1
    25    21    22    1
    26    22    23    2
    27    22    24   am
    28    24    26    1
    29    26    27   ar
    30    27    28   ar
    31    28    29   ar
    32    29    30    1
    33    29    31   ar
    34    31    32   ar
    35     6     1   ar
    36    15    10   ar
    37    32    26   ar
    38     9     5   ar
    39    24    25    1
@<TRIPOS>MOLECULE
*****
 36 39 0 0 0
SMALL
GASTEIGER

@<TRIPOS>ATOM
      1 C         143.2096  143.5995  163.1603 C.ar    1  UNL1        0.2311
      2 N         144.4032  142.7343  163.4368 N.ar    1  UNL1       -0.1892
      3 C         144.4303  141.8614  164.6563 C.ar    1  UNL1        0.2029
      4 N         143.2638  141.8537  165.5993 N.ar    1  UNL1       -0.2046
      5 C         142.0702  142.7190  165.3228 C.ar    1  UNL1        0.1715
      6 C         142.0431  143.5919  164.1033 C.ar    1  UNL1        0.1098
      7 C         140.7387  144.3327  164.0924 C.ar    1  UNL1        0.1283
      8 N         139.9598  143.9175  165.3051 N.ar    1  UNL1       -0.1620
      9 N         140.7827  142.9202  166.0656 N.ar    1  UNL1       -0.2120
     10 C         140.3874  142.2430  167.3443 C.ar    1  UNL1        0.0883
     11 C         140.4725  142.9866  168.6442 C.ar    1  UNL1        0.0192
     12 C         140.0773  142.3094  169.9230 C.ar    1  UNL1        0.0015
     13 C         139.5970  140.8886  169.9018 C.ar    1  UNL1        0.0000
     14 C         139.5119  140.1450  168.6019 C.ar    1  UNL1        0.0054
     15 C         139.9072  140.8222  167.3232 C.ar    1  UNL1        0.0891
     16 C         139.8221  140.0785  166.0233 C.3     1  UNL1        0.4200
     17 F         139.7370  139.3348  164.7235 F       1  UNL1       -0.1658
     18 F         138.4937  140.7170  165.7448 F       1  UNL1       -0.1658
     19 F         141.1505  139.4399  166.3018 F       1  UNL1       -0.1658
     20 O         143.1824  144.4725  161.9407 O.3     1  UNL1       -0.4543
     21 C         142.4505  144.0213  160.7116 C.3     1  UNL1        0.2455
     22 C         142.7579  142.6848  160.1039 C.2     1  UNL1        0.2675
     23 O         144.1818  142.2349  159.9625 O.2     1  UNL1       -0.2708
     24 N         141.6414  141.7982  159.6375 N.am    1  UNL1       -0.2664
     25 H         140.7069  142.0936  159.7303 H       1  UNL1        0.1564
     26 C         141.9488  140.4618  159.0298 C.ar    1  UNL1        0.1342
     27 C         141.8764  140.2796  157.5427 C.ar    1  UNL1        0.0342
     28 C         142.1838  138.9431  156.9350 C.ar    1  UNL1        0.0001
     29 C         142.5637  137.7888  157.8144 C.ar    1  UNL1       -0.0026
     30 C         142.8711  136.4523  157.2067 C.3     1  UNL1        0.0327
     31 C         142.6361  137.9710  159.3015 C.ar    1  UNL1        0.0960
     32 N         142.3287  139.3076  159.9092 N.ar    1  UNL1       -0.2293
     33 C         141.4112  144.9065  160.0902 C.3     1  UNL1        0.0852
     34 C         139.9998  144.8764  160.5974 C.3     1  UNL1        0.1465
     35 C         138.6037  142.8251  161.3676 C.3     1  UNL1        0.1741
     36 O         139.1100  143.7140  160.2704 O.3     1  UNL1       -0.3510
@<TRIPOS>BOND
     1    35    36    1
     2    36    34    1
     3    34    33    1
     4    21    33    1
     5    21    20    1
     6    20     1    1
     7     1     2   ar
     8     2     3   ar
     9     3     4   ar
    10     4     5   ar
    11     5     6   ar
    12     6     7   ar
    13     7     8   ar
    14     8     9   ar
    15     9    10    1
    16    10    11   ar
    17    11    12   ar
    18    12    13   ar
    19    13    14   ar
    20    14    15   ar
    21    15    16    1
    22    16    17    1
    23    16    18    1
    24    16    19    1
    25    21    22    1
    26    22    23    2
    27    22    24   am
    28    24    26    1
    29    26    27   ar
    30    27    28   ar
    31    28    29   ar
    32    29    30    1
    33    29    31   ar
    34    31    32   ar
    35     6     1   ar
    36    15    10   ar
    37    32    26   ar
    38     9     5   ar
    39    24    25    1
@<TRIPOS>MOLECULE
*****
 36 39 0 0 0
SMALL
GASTEIGER

@<TRIPOS>ATOM
      1 C         144.2696  140.0525  162.1470 C.ar    1  UNL1        0.2311
      2 N         145.1068  141.2386  162.5242 N.ar    1  UNL1       -0.1892
      3 C         145.0083  141.8175  163.9044 C.ar    1  UNL1        0.2029
      4 N         144.0728  141.2104  164.9075 N.ar    1  UNL1       -0.2046
      5 C         143.2356  140.0243  164.5303 C.ar    1  UNL1        0.1715
      6 C         143.3340  139.4454  163.1501 C.ar    1  UNL1        0.1098
      7 C         142.3910  138.2818  163.0671 C.ar    1  UNL1        0.1283
      8 N         141.7098  138.1416  164.3962 N.ar    1  UNL1       -0.1620
      9 N         142.2318  139.2186  165.3004 N.ar    1  UNL1       -0.2120
     10 C         141.8219  139.4493  166.7248 C.ar    1  UNL1        0.0883
     11 C         142.8008  139.2081  167.8354 C.ar    1  UNL1        0.0192
     12 C         142.3910  139.4389  169.2597 C.ar    1  UNL1        0.0015
     13 C         141.0022  139.9108  169.5735 C.ar    1  UNL1        0.0000
     14 C         140.0233  140.1520  168.4629 C.ar    1  UNL1        0.0054
     15 C         140.4331  139.9213  167.0385 C.ar    1  UNL1        0.0891
     16 C         139.4541  140.1625  165.9280 C.3     1  UNL1        0.4200
     17 F         138.4752  140.4038  164.8174 F       1  UNL1       -0.1658
     18 F         138.9752  138.7457  166.0423 F       1  UNL1       -0.1658
     19 F         139.9331  141.5794  165.8135 F       1  UNL1       -0.1658
     20 O         144.3680  139.4735  160.7667 O.3     1  UNL1       -0.4543
     21 C         143.3253  139.8019  159.7396 C.3     1  UNL1        0.2455
     22 C         143.2533  139.0136  158.4654 C.2     1  UNL1        0.2675
     23 O         143.9212  139.5296  157.2254 O.2     1  UNL1       -0.2708
     24 N         142.5132  137.7093  158.4313 N.am    1  UNL1       -0.2664
     25 H         142.0749  137.3707  159.2451 H       1  UNL1        0.1564
     26 C         142.4411  136.9210  157.1572 C.ar    1  UNL1        0.1342
     27 C         141.1233  136.7307  156.4666 C.ar    1  UNL1        0.0342
     28 C         141.0511  135.9424  155.1925 C.ar    1  UNL1        0.0001
     29 C         142.2970  135.3444  154.6089 C.ar    1  UNL1       -0.0026
     30 C         142.2248  134.5561  153.3349 C.3     1  UNL1        0.0327
     31 C         143.6148  135.5347  155.2996 C.ar    1  UNL1        0.0960
     32 N         143.6869  136.3231  156.5737 N.ar    1  UNL1       -0.2293
     33 C         142.3549  140.9187  159.9865 C.3     1  UNL1        0.0852
     34 C         140.9597  140.6123  160.4444 C.3     1  UNL1        0.1465
     35 C         139.3025  139.3362  158.9032 C.3     1  UNL1        0.1741
     36 O         140.2969  139.3333  160.0262 O.3     1  UNL1       -0.3510
@<TRIPOS>BOND
     1    35    36    1
     2    36    34    1
     3    34    33    1
     4    21    33    1
     5    21    20    1
     6    20     1    1
     7     1     2   ar
     8     2     3   ar
     9     3     4   ar
    10     4     5   ar
    11     5     6   ar
    12     6     7   ar
    13     7     8   ar
    14     8     9   ar
    15     9    10    1
    16    10    11   ar
    17    11    12   ar
    18    12    13   ar
    19    13    14   ar
    20    14    15   ar
    21    15    16    1
    22    16    17    1
    23    16    18    1
    24    16    19    1
    25    21    22    1
    26    22    23    2
    27    22    24   am
    28    24    26    1
    29    26    27   ar
    30    27    28   ar
    31    28    29   ar
    32    29    30    1
    33    29    31   ar
    34    31    32   ar
    35     6     1   ar
    36    15    10   ar
    37    32    26   ar
    38     9     5   ar
    39    24    25    1
