@<TRIPOS>MOLECULE
*****
 33 35 0 0 0
SMALL
GASTEIGER

@<TRIPOS>ATOM
      1 C         142.3876  139.1169  161.5102 C.ar    1  UNL1        0.1508
      2 C         141.1040  138.3667  161.3115 C.ar    1  UNL1        0.0778
      3 CL        140.4779  138.2990  159.9501 Cl      1  UNL1       -0.0808
      4 C         140.4465  137.6841  162.4742 C.ar    1  UNL1        0.0142
      5 C         141.0726  137.7518  163.8355 C.ar    1  UNL1        0.0187
      6 C         142.3562  138.5020  164.0342 C.ar    1  UNL1        0.0870
      7 C         143.0137  139.1845  162.8716 C.ar    1  UNL1        0.1650
      8 O         144.2974  139.9347  163.0703 O.3     1  UNL1       -0.5032
      9 H         144.6885  139.9770  163.9208 H       1  UNL1        0.2923
     10 N         142.9824  138.5696  165.3957 N.am    1  UNL1       -0.2656
     11 C         142.3212  139.3584  166.4869 C.2     1  UNL1        0.3083
     12 O         141.0339  140.0795  166.2167 O.2     1  UNL1       -0.2521
     13 N         142.9473  139.4261  167.8483 N.am    1  UNL1       -0.2672
     14 H         143.8272  138.0963  165.5730 H       1  UNL1        0.1565
     15 H         143.7922  138.9528  168.0256 H       1  UNL1        0.1564
     16 C         142.2862  140.2148  168.9395 C.ar    1  UNL1        0.0644
     17 C         141.3771  139.5287  169.9156 C.ar    1  UNL1        0.0157
     18 C         140.7160  140.3175  171.0068 C.ar    1  UNL1        0.0036
     19 C         140.9639  141.7924  171.1219 C.ar    1  UNL1        0.0306
     20 C         141.8729  142.4785  170.1457 C.ar    1  UNL1        0.1518
     21 F         142.1208  143.9534  170.2608 F       1  UNL1       -0.2032
     22 C         142.5341  141.6898  169.0545 C.ar    1  UNL1        0.0985
     23 CL        143.4431  142.3759  168.0784 Cl      1  UNL1       -0.0786
     24 S         143.0451  139.7994  160.3475 S.O2    1  UNL1        0.0108
     25 O         142.1243  140.9716  160.5149 O.2     1  UNL1       -0.1686
     26 O         143.9660  138.6273  160.1802 O.2     1  UNL1       -0.1686
     27 C         145.6752  142.5297  155.6969 C.3     1  UNL1        0.0896
     28 N         145.0176  141.8471  156.8595 N.3     1  UNL1       -0.2714
     29 C         144.9644  142.5264  158.1958 C.3     1  UNL1        0.0739
     30 C         144.3069  141.8438  159.3585 C.3     1  UNL1        0.0413
     31 C         143.7026  140.4820  159.1849 C.3     1  UNL1        0.1367
     32 C         143.7558  139.8028  157.8486 C.3     1  UNL1        0.0413
     33 C         144.4133  140.4853  156.6859 C.3     1  UNL1        0.0739
@<TRIPOS>BOND
     1    27    28    1
     2    28    29    1
     3    29    30    1
     4    30    31    1
     5    31    24    1
     6    24    25    2
     7    24    26    2
     8    24     1    1
     9     1     2   ar
    10     2     3    1
    11     2     4   ar
    12     4     5   ar
    13     5     6   ar
    14     6    10    1
    15    10    11   am
    16    11    12    2
    17    11    13   am
    18    13    16    1
    19    16    17   ar
    20    17    18   ar
    21    18    19   ar
    22    19    20   ar
    23    20    21    1
    24    20    22   ar
    25    22    23    1
    26     6     7   ar
    27     7     8    1
    28    31    32    1
    29    32    33    1
    30    33    28    1
    31     7     1   ar
    32    22    16   ar
    33    10    14    1
    34    13    15    1
    35     8     9    1
@<TRIPOS>MOLECULE
*****
 33 35 0 0 0
SMALL
GASTEIGER

@<TRIPOS>ATOM
      1 C         140.0169  145.5723  156.3112 C.ar    1  UNL1        0.1508
      2 C         139.0164  144.4803  156.0739 C.ar    1  UNL1        0.0778
      3 CL        137.7455  144.7753  155.3338 Cl      1  UNL1       -0.0808
      4 C         139.2868  143.0932  156.5767 C.ar    1  UNL1        0.0142
      5 C         140.5577  142.7981  157.3168 C.ar    1  UNL1        0.0187
      6 C         141.5582  143.8901  157.5541 C.ar    1  UNL1        0.0870
      7 C         141.2878  145.2773  157.0513 C.ar    1  UNL1        0.1650
      8 O         142.2884  146.3693  157.2886 O.3     1  UNL1       -0.5032
      9 H         143.0823  146.1850  157.7509 H       1  UNL1        0.2923
     10 N         142.8291  143.5951  158.2942 N.am    1  UNL1       -0.2656
     11 C         142.8301  143.5470  159.7934 C.2     1  UNL1        0.3083
     12 O         141.5600  143.7939  160.5525 O.2     1  UNL1       -0.2521
     13 N         144.1009  143.2519  160.5336 N.am    1  UNL1       -0.2672
     14 H         143.6626  143.4331  157.7960 H       1  UNL1        0.1565
     15 H         144.9344  143.0899  160.0353 H       1  UNL1        0.1564
     16 C         144.1019  143.2038  162.0328 C.ar    1  UNL1        0.0644
     17 C         143.9233  144.4657  162.8238 C.ar    1  UNL1        0.0157
     18 C         143.9242  144.4175  164.3230 C.ar    1  UNL1        0.0036
     19 C         144.1037  143.1075  165.0312 C.ar    1  UNL1        0.0306
     20 C         144.2823  141.8455  164.2402 C.ar    1  UNL1        0.1518
     21 F         144.4617  140.5355  164.9484 F       1  UNL1       -0.2032
     22 C         144.2813  141.8937  162.7410 C.ar    1  UNL1        0.0985
     23 CL        144.4599  140.6318  161.9500 Cl      1  UNL1       -0.0786
     24 S         139.7466  146.9595  155.8084 S.O2    1  UNL1        0.0108
     25 O         139.1979  147.3395  157.1517 O.2     1  UNL1       -0.1686
     26 O         140.2952  146.5795  154.4651 O.2     1  UNL1       -0.1686
     27 C         138.6652  152.5079  153.7972 C.3     1  UNL1        0.0896
     28 N         138.9355  151.1208  154.3000 N.3     1  UNL1       -0.2714
     29 C         138.4373  150.7026  155.6516 C.3     1  UNL1        0.0739
     30 C         138.7077  149.3155  156.1544 C.3     1  UNL1        0.0413
     31 C         139.4762  148.3466  155.3056 C.3     1  UNL1        0.1367
     32 C         139.9744  148.7648  153.9540 C.3     1  UNL1        0.0413
     33 C         139.7041  150.1519  153.4512 C.3     1  UNL1        0.0739
@<TRIPOS>BOND
     1    27    28    1
     2    28    29    1
     3    29    30    1
     4    30    31    1
     5    31    24    1
     6    24    25    2
     7    24    26    2
     8    24     1    1
     9     1     2   ar
    10     2     3    1
    11     2     4   ar
    12     4     5   ar
    13     5     6   ar
    14     6    10    1
    15    10    11   am
    16    11    12    2
    17    11    13   am
    18    13    16    1
    19    16    17   ar
    20    17    18   ar
    21    18    19   ar
    22    19    20   ar
    23    20    21    1
    24    20    22   ar
    25    22    23    1
    26     6     7   ar
    27     7     8    1
    28    31    32    1
    29    32    33    1
    30    33    28    1
    31     7     1   ar
    32    22    16   ar
    33    10    14    1
    34    13    15    1
    35     8     9    1
@<TRIPOS>MOLECULE
*****
 33 35 0 0 0
SMALL
GASTEIGER

@<TRIPOS>ATOM
      1 C         138.9729  139.8746  164.1253 C.ar    1  UNL1        0.1508
      2 C         138.9143  138.4193  163.7668 C.ar    1  UNL1        0.0778
      3 CL        139.2444  137.3794  164.7963 Cl      1  UNL1       -0.0808
      4 C         138.5258  138.0037  162.3789 C.ar    1  UNL1        0.0142
      5 C         138.1957  139.0435  161.3494 C.ar    1  UNL1        0.0187
      6 C         138.2542  140.4989  161.7079 C.ar    1  UNL1        0.0870
      7 C         138.6428  140.9144  163.0958 C.ar    1  UNL1        0.1650
      8 O         138.7013  142.3698  163.4543 O.3     1  UNL1       -0.5032
      9 H         138.4951  143.0193  162.8112 H       1  UNL1        0.2923
     10 N         137.9242  141.5388  160.6784 N.am    1  UNL1       -0.2656
     11 C         138.9946  142.0535  159.7624 C.2     1  UNL1        0.3083
     12 O         140.3952  141.5284  159.8759 O.2     1  UNL1       -0.2521
     13 N         138.6646  143.0934  158.7330 N.am    1  UNL1       -0.2672
     14 H         137.0049  141.8834  160.6040 H       1  UNL1        0.1565
     15 H         137.7454  143.4380  158.6585 H       1  UNL1        0.1564
     16 C         139.7351  143.6082  157.8170 C.ar    1  UNL1        0.0644
     17 C         139.9611  142.9549  156.4858 C.ar    1  UNL1        0.0157
     18 C         141.0316  143.4697  155.5698 C.ar    1  UNL1        0.0036
     19 C         141.8761  144.6377  155.9850 C.ar    1  UNL1        0.0306
     20 C         141.6501  145.2911  157.3162 C.ar    1  UNL1        0.1518
     21 F         142.4946  146.4592  157.7314 F       1  UNL1       -0.2032
     22 C         140.5796  144.7763  158.2322 C.ar    1  UNL1        0.0985
     23 CL        140.3536  145.4296  159.5634 Cl      1  UNL1       -0.0786
     24 S         139.3614  140.2901  165.5132 S.O2    1  UNL1        0.0108
     25 O         138.0119  139.8712  166.0164 O.2     1  UNL1       -0.1686
     26 O         140.7110  140.7090  165.0100 O.2     1  UNL1       -0.1686
     27 C         140.9158  141.9522  171.0649 C.3     1  UNL1        0.0896
     28 N         140.5272  141.5367  169.6770 N.3     1  UNL1       -0.2714
     29 C         140.9185  142.3844  168.5031 C.3     1  UNL1        0.0739
     30 C         140.5299  141.9689  167.1151 C.3     1  UNL1        0.0413
     31 C         139.7500  140.7056  166.9011 C.3     1  UNL1        0.1367
     32 C         139.3587  139.8579  168.0750 C.3     1  UNL1        0.0413
     33 C         139.7473  140.2734  169.4630 C.3     1  UNL1        0.0739
@<TRIPOS>BOND
     1    27    28    1
     2    28    29    1
     3    29    30    1
     4    30    31    1
     5    31    24    1
     6    24    25    2
     7    24    26    2
     8    24     1    1
     9     1     2   ar
    10     2     3    1
    11     2     4   ar
    12     4     5   ar
    13     5     6   ar
    14     6    10    1
    15    10    11   am
    16    11    12    2
    17    11    13   am
    18    13    16    1
    19    16    17   ar
    20    17    18   ar
    21    18    19   ar
    22    19    20   ar
    23    20    21    1
    24    20    22   ar
    25    22    23    1
    26     6     7   ar
    27     7     8    1
    28    31    32    1
    29    32    33    1
    30    33    28    1
    31     7     1   ar
    32    22    16   ar
    33    10    14    1
    34    13    15    1
    35     8     9    1
@<TRIPOS>MOLECULE
*****
 33 35 0 0 0
SMALL
GASTEIGER

@<TRIPOS>ATOM
      1 C         139.1548  140.5159  161.8737 C.ar    1  UNL1        0.1508
      2 C         139.0995  139.1126  161.3467 C.ar    1  UNL1        0.0778
      3 CL        139.2796  138.8546  159.8800 Cl      1  UNL1       -0.0808
      4 C         138.8640  137.9674  162.2863 C.ar    1  UNL1        0.0142
      5 C         138.6839  138.2253  163.7529 C.ar    1  UNL1        0.0187
      6 C         138.7393  139.6286  164.2799 C.ar    1  UNL1        0.0870
      7 C         138.9748  140.7739  163.3403 C.ar    1  UNL1        0.1650
      8 O         139.0301  142.1772  163.8673 O.3     1  UNL1       -0.5032
      9 H         138.9176  142.3383  164.7835 H       1  UNL1        0.2923
     10 N         138.5592  139.8866  165.7466 N.am    1  UNL1       -0.2656
     11 C         139.7543  140.1494  166.6141 C.2     1  UNL1        0.3083
     12 O         141.1295  140.1541  166.0150 O.2     1  UNL1       -0.2521
     13 N         139.5743  140.4074  168.0807 N.am    1  UNL1       -0.2672
     14 H         137.6566  139.8836  166.1398 H       1  UNL1        0.1565
     15 H         138.6717  140.4043  168.4739 H       1  UNL1        0.1564
     16 C         140.7694  140.6702  168.9483 C.ar    1  UNL1        0.0644
     17 C         141.5778  139.5234  169.4788 C.ar    1  UNL1        0.0157
     18 C         142.7729  139.7862  170.3463 C.ar    1  UNL1        0.0036
     19 C         143.1597  141.1957  170.6834 C.ar    1  UNL1        0.0306
     20 C         142.3513  142.3426  170.1529 C.ar    1  UNL1        0.1518
     21 F         142.7380  143.7521  170.4900 F       1  UNL1       -0.2032
     22 C         141.1562  142.0798  169.2854 C.ar    1  UNL1        0.0985
     23 CL        140.3478  143.2265  168.7549 Cl      1  UNL1       -0.0786
     24 S         139.3903  141.6612  160.9340 S.O2    1  UNL1        0.0108
     25 O         137.9185  141.9498  160.9171 O.2     1  UNL1       -0.1686
     26 O         140.8622  141.3725  160.9510 O.2     1  UNL1       -0.1686
     27 C         140.3322  146.2423  157.1755 C.3     1  UNL1        0.0896
     28 N         140.0967  145.0970  158.1152 N.3     1  UNL1       -0.2714
     29 C         140.3548  145.2660  159.5831 C.3     1  UNL1        0.0739
     30 C         140.1193  144.1207  160.5227 C.3     1  UNL1        0.0413
     31 C         139.6258  142.8064  159.9944 C.3     1  UNL1        0.1367
     32 C         139.3677  142.6375  158.5265 C.3     1  UNL1        0.0413
     33 C         139.6032  143.7827  157.5869 C.3     1  UNL1        0.0739
@<TRIPOS>BOND
     1    27    28    1
     2    28    29    1
     3    29    30    1
     4    30    31    1
     5    31    24    1
     6    24    25    2
     7    24    26    2
     8    24     1    1
     9     1     2   ar
    10     2     3    1
    11     2     4   ar
    12     4     5   ar
    13     5     6   ar
    14     6    10    1
    15    10    11   am
    16    11    12    2
    17    11    13   am
    18    13    16    1
    19    16    17   ar
    20    17    18   ar
    21    18    19   ar
    22    19    20   ar
    23    20    21    1
    24    20    22   ar
    25    22    23    1
    26     6     7   ar
    27     7     8    1
    28    31    32    1
    29    32    33    1
    30    33    28    1
    31     7     1   ar
    32    22    16   ar
    33    10    14    1
    34    13    15    1
    35     8     9    1
@<TRIPOS>MOLECULE
*****
 33 35 0 0 0
SMALL
GASTEIGER

@<TRIPOS>ATOM
      1 C         140.8672  140.3277  160.4216 C.ar    1  UNL1        0.1508
      2 C         140.5695  141.6609  159.8022 C.ar    1  UNL1        0.0778
      3 CL        139.6387  142.6160  160.4890 Cl      1  UNL1       -0.0808
      4 C         141.2026  142.0393  158.4960 C.ar    1  UNL1        0.0142
      5 C         142.1333  141.0844  157.8092 C.ar    1  UNL1        0.0187
      6 C         142.4310  139.7511  158.4286 C.ar    1  UNL1        0.0870
      7 C         141.7980  139.3727  159.7347 C.ar    1  UNL1        0.1650
      8 O         142.0957  138.0394  160.3541 O.3     1  UNL1       -0.5032
      9 H         142.6772  137.4428  159.9250 H       1  UNL1        0.2923
     10 N         143.3618  138.7961  157.7417 N.am    1  UNL1       -0.2656
     11 C         142.8266  137.5334  157.1343 C.2     1  UNL1        0.3083
     12 O         141.3606  137.2256  157.2136 O.2     1  UNL1       -0.2521
     13 N         143.7573  136.5784  156.4475 N.am    1  UNL1       -0.2672
     14 H         144.3240  138.9981  157.6897 H       1  UNL1        0.1565
     15 H         144.7195  136.7804  156.3954 H       1  UNL1        0.1564
     16 C         143.2221  135.3156  155.8400 C.ar    1  UNL1        0.0644
     17 C         142.7810  135.3014  154.4064 C.ar    1  UNL1        0.0157
     18 C         142.2458  134.0386  153.7989 C.ar    1  UNL1        0.0036
     19 C         142.1518  132.7902  154.6250 C.ar    1  UNL1        0.0306
     20 C         142.5929  132.8044  156.0586 C.ar    1  UNL1        0.1518
     21 F         142.4989  131.5559  156.8847 F       1  UNL1       -0.2032
     22 C         143.1281  134.0671  156.6661 C.ar    1  UNL1        0.0985
     23 CL        143.5693  134.0814  158.0997 Cl      1  UNL1       -0.0786
     24 S         140.2342  139.9493  161.7277 S.O2    1  UNL1        0.0108
     25 O         139.2347  139.1018  160.9978 O.2     1  UNL1       -0.1686
     26 O         141.2337  140.7968  162.4577 O.2     1  UNL1       -0.1686
     27 C         137.7020  138.4358  166.9524 C.3     1  UNL1        0.0896
     28 N         138.3350  138.8141  165.6462 N.3     1  UNL1       -0.2714
     29 C         138.3444  140.2476  165.2047 C.3     1  UNL1        0.0739
     30 C         138.9774  140.6260  163.8986 C.3     1  UNL1        0.0413
     31 C         139.6011  139.5709  163.0339 C.3     1  UNL1        0.1367
     32 C         139.5918  138.1374  163.4754 C.3     1  UNL1        0.0413
     33 C         138.9587  137.7590  164.7816 C.3     1  UNL1        0.0739
@<TRIPOS>BOND
     1    27    28    1
     2    28    29    1
     3    29    30    1
     4    30    31    1
     5    31    24    1
     6    24    25    2
     7    24    26    2
     8    24     1    1
     9     1     2   ar
    10     2     3    1
    11     2     4   ar
    12     4     5   ar
    13     5     6   ar
    14     6    10    1
    15    10    11   am
    16    11    12    2
    17    11    13   am
    18    13    16    1
    19    16    17   ar
    20    17    18   ar
    21    18    19   ar
    22    19    20   ar
    23    20    21    1
    24    20    22   ar
    25    22    23    1
    26     6     7   ar
    27     7     8    1
    28    31    32    1
    29    32    33    1
    30    33    28    1
    31     7     1   ar
    32    22    16   ar
    33    10    14    1
    34    13    15    1
    35     8     9    1
@<TRIPOS>MOLECULE
*****
 33 35 0 0 0
SMALL
GASTEIGER

@<TRIPOS>ATOM
      1 C         139.1432  140.7752  161.4927 C.ar    1  UNL1        0.1508
      2 C         138.4800  142.0565  161.0825 C.ar    1  UNL1        0.0778
      3 CL        138.4933  142.4808  159.6437 Cl      1  UNL1       -0.0808
      4 C         137.8035  142.9137  162.1109 C.ar    1  UNL1        0.0142
      5 C         137.7902  142.4895  163.5496 C.ar    1  UNL1        0.0187
      6 C         138.4534  141.2082  163.9598 C.ar    1  UNL1        0.0870
      7 C         139.1298  140.3510  162.9314 C.ar    1  UNL1        0.1650
      8 O         139.7930  139.0696  163.3418 O.3     1  UNL1       -0.5032
      9 H         139.7847  138.8047  164.2405 H       1  UNL1        0.2923
     10 N         138.4400  140.7839  165.3986 N.am    1  UNL1       -0.2656
     11 C         139.6466  141.0141  166.2595 C.2     1  UNL1        0.3083
     12 O         140.8665  141.6684  165.6817 O.2     1  UNL1       -0.2521
     13 N         139.6333  140.5899  167.6982 N.am    1  UNL1       -0.2672
     14 H         137.6394  140.3545  165.7778 H       1  UNL1        0.1565
     15 H         138.8327  140.1604  168.0774 H       1  UNL1        0.1564
     16 C         140.8399  140.8200  168.5592 C.ar    1  UNL1        0.0644
     17 C         141.7558  139.6784  168.8874 C.ar    1  UNL1        0.0157
     18 C         142.9624  139.9085  169.7484 C.ar    1  UNL1        0.0036
     19 C         143.2530  141.2803  170.2811 C.ar    1  UNL1        0.0306
     20 C         142.3371  142.4220  169.9528 C.ar    1  UNL1        0.1518
     21 F         142.6277  143.7937  170.4855 F       1  UNL1       -0.2032
     22 C         141.1305  142.1918  169.0919 C.ar    1  UNL1        0.0985
     23 CL        140.2146  143.3334  168.7636 Cl      1  UNL1       -0.0786
     24 S         139.8197  139.9180  160.4643 S.O2    1  UNL1        0.0108
     25 O         141.0642  140.7453  160.5935 O.2     1  UNL1       -0.1686
     26 O         138.5751  139.0908  160.3352 O.2     1  UNL1       -0.1686
     27 C         142.5256  136.4894  156.3507 C.3     1  UNL1        0.0896
     28 N         141.8491  137.3465  157.3791 N.3     1  UNL1       -0.2714
     29 C         140.4137  137.7425  157.1987 C.3     1  UNL1        0.0739
     30 C         139.7372  138.5996  158.2271 C.3     1  UNL1        0.0413
     31 C         140.4962  139.0609  159.4359 C.3     1  UNL1        0.1367
     32 C         141.9316  138.6649  159.6163 C.3     1  UNL1        0.0413
     33 C         142.6081  137.8078  158.5878 C.3     1  UNL1        0.0739
@<TRIPOS>BOND
     1    27    28    1
     2    28    29    1
     3    29    30    1
     4    30    31    1
     5    31    24    1
     6    24    25    2
     7    24    26    2
     8    24     1    1
     9     1     2   ar
    10     2     3    1
    11     2     4   ar
    12     4     5   ar
    13     5     6   ar
    14     6    10    1
    15    10    11   am
    16    11    12    2
    17    11    13   am
    18    13    16    1
    19    16    17   ar
    20    17    18   ar
    21    18    19   ar
    22    19    20   ar
    23    20    21    1
    24    20    22   ar
    25    22    23    1
    26     6     7   ar
    27     7     8    1
    28    31    32    1
    29    32    33    1
    30    33    28    1
    31     7     1   ar
    32    22    16   ar
    33    10    14    1
    34    13    15    1
    35     8     9    1
@<TRIPOS>MOLECULE
*****
 33 35 0 0 0
SMALL
GASTEIGER

@<TRIPOS>ATOM
      1 C         139.3163  140.3276  162.0199 C.ar    1  UNL1        0.1508
      2 C         139.3259  138.9297  161.4762 C.ar    1  UNL1        0.0778
      3 CL        139.5139  138.6980  160.0061 Cl      1  UNL1       -0.0808
      4 C         139.1476  137.7634  162.4025 C.ar    1  UNL1        0.0142
      5 C         138.9596  137.9951  163.8725 C.ar    1  UNL1        0.0187
      6 C         138.9500  139.3930  164.4162 C.ar    1  UNL1        0.0870
      7 C         139.1284  140.5593  163.4899 C.ar    1  UNL1        0.1650
      8 O         139.1188  141.9572  164.0337 O.3     1  UNL1       -0.5032
      9 H         139.0013  142.1019  164.9520 H       1  UNL1        0.2923
     10 N         138.7620  139.6247  165.8863 N.am    1  UNL1       -0.2656
     11 C         139.7699  140.4278  166.6539 C.2     1  UNL1        0.3083
     12 O         140.9658  140.9991  165.9514 O.2     1  UNL1       -0.2521
     13 N         139.5820  140.6595  168.1239 N.am    1  UNL1       -0.2672
     14 H         137.9771  139.2497  166.3473 H       1  UNL1        0.1565
     15 H         138.7971  140.2845  168.5849 H       1  UNL1        0.1564
     16 C         140.5899  141.4625  168.8914 C.ar    1  UNL1        0.0644
     17 C         140.2903  142.8846  169.2626 C.ar    1  UNL1        0.0157
     18 C         141.2983  143.6877  170.0302 C.ar    1  UNL1        0.0036
     19 C         142.6058  143.0687  170.4266 C.ar    1  UNL1        0.0306
     20 C         142.9054  141.6465  170.0554 C.ar    1  UNL1        0.1518
     21 F         144.2129  141.0275  170.4518 F       1  UNL1       -0.2032
     22 C         141.8975  140.8434  169.2878 C.ar    1  UNL1        0.0985
     23 CL        142.1971  139.4213  168.9166 Cl      1  UNL1       -0.0786
     24 S         139.4947  141.4939  161.0936 S.O2    1  UNL1        0.0108
     25 O         138.0078  141.6862  161.0494 O.2     1  UNL1       -0.1686
     26 O         140.9817  141.3016  161.1379 O.2     1  UNL1       -0.1686
     27 C         140.2082  146.1590  157.3885 C.3     1  UNL1        0.0896
     28 N         140.0298  144.9927  158.3148 N.3     1  UNL1       -0.2714
     29 C         140.3509  145.1370  159.7729 C.3     1  UNL1        0.0739
     30 C         140.1725  143.9707  160.6992 C.3     1  UNL1        0.0413
     31 C         139.6731  142.6602  160.1674 C.3     1  UNL1        0.1367
     32 C         139.3520  142.5158  158.7093 C.3     1  UNL1        0.0413
     33 C         139.5304  143.6821  157.7830 C.3     1  UNL1        0.0739
@<TRIPOS>BOND
     1    27    28    1
     2    28    29    1
     3    29    30    1
     4    30    31    1
     5    31    24    1
     6    24    25    2
     7    24    26    2
     8    24     1    1
     9     1     2   ar
    10     2     3    1
    11     2     4   ar
    12     4     5   ar
    13     5     6   ar
    14     6    10    1
    15    10    11   am
    16    11    12    2
    17    11    13   am
    18    13    16    1
    19    16    17   ar
    20    17    18   ar
    21    18    19   ar
    22    19    20   ar
    23    20    21    1
    24    20    22   ar
    25    22    23    1
    26     6     7   ar
    27     7     8    1
    28    31    32    1
    29    32    33    1
    30    33    28    1
    31     7     1   ar
    32    22    16   ar
    33    10    14    1
    34    13    15    1
    35     8     9    1
@<TRIPOS>MOLECULE
*****
 33 35 0 0 0
SMALL
GASTEIGER

@<TRIPOS>ATOM
      1 C         143.2922  140.2143  160.8771 C.ar    1  UNL1        0.1508
      2 C         144.1656  141.3958  160.5755 C.ar    1  UNL1        0.0778
      3 CL        144.2755  141.9080  159.1699 Cl      1  UNL1       -0.0808
      4 C         144.9292  142.0652  161.6795 C.ar    1  UNL1        0.0142
      5 C         144.8194  141.5531  163.0850 C.ar    1  UNL1        0.0187
      6 C         143.9459  140.3715  163.3866 C.ar    1  UNL1        0.0870
      7 C         143.1823  139.7021  162.2826 C.ar    1  UNL1        0.1650
      8 O         142.3088  138.5205  162.5842 O.3     1  UNL1       -0.5032
      9 H         142.2402  138.2006  163.4622 H       1  UNL1        0.2923
     10 N         143.8361  139.8593  164.7922 N.am    1  UNL1       -0.2656
     11 C         142.8652  140.4895  165.7463 C.2     1  UNL1        0.3083
     12 O         142.0042  141.6318  165.2948 O.2     1  UNL1       -0.2521
     13 N         142.7553  139.9773  167.1518 N.am    1  UNL1       -0.2672
     14 H         144.4011  139.1096  165.0885 H       1  UNL1        0.1565
     15 H         143.3204  139.2276  167.4481 H       1  UNL1        0.1564
     16 C         141.7844  140.6075  168.1059 C.ar    1  UNL1        0.0644
     17 C         140.4564  139.9588  168.3622 C.ar    1  UNL1        0.0157
     18 C         139.4856  140.5889  169.3163 C.ar    1  UNL1        0.0036
     19 C         139.8426  141.8678  170.0141 C.ar    1  UNL1        0.0306
     20 C         141.1706  142.5165  169.7579 C.ar    1  UNL1        0.1518
     21 F         141.5277  143.7954  170.4557 F       1  UNL1       -0.2032
     22 C         142.1415  141.8864  168.8038 C.ar    1  UNL1        0.0985
     23 CL        143.4695  142.5351  168.5475 Cl      1  UNL1       -0.0786
     24 S         142.5286  139.5449  159.7731 S.O2    1  UNL1        0.0108
     25 O         141.3031  140.3245  160.1480 O.2     1  UNL1       -0.1686
     26 O         143.7540  138.7653  159.3981 O.2     1  UNL1       -0.1686
     27 C         139.4741  136.8673  155.3571 C.3     1  UNL1        0.0896
     28 N         140.2377  137.5367  156.4611 N.3     1  UNL1       -0.2714
     29 C         139.6165  138.6698  157.2228 C.3     1  UNL1        0.0739
     30 C         140.3801  139.3392  158.3268 C.3     1  UNL1        0.0413
     31 C         141.7649  138.8755  158.6691 C.3     1  UNL1        0.1367
     32 C         142.3861  137.7424  157.9074 C.3     1  UNL1        0.0413
     33 C         141.6225  137.0731  156.8034 C.3     1  UNL1        0.0739
@<TRIPOS>BOND
     1    27    28    1
     2    28    29    1
     3    29    30    1
     4    30    31    1
     5    31    24    1
     6    24    25    2
     7    24    26    2
     8    24     1    1
     9     1     2   ar
    10     2     3    1
    11     2     4   ar
    12     4     5   ar
    13     5     6   ar
    14     6    10    1
    15    10    11   am
    16    11    12    2
    17    11    13   am
    18    13    16    1
    19    16    17   ar
    20    17    18   ar
    21    18    19   ar
    22    19    20   ar
    23    20    21    1
    24    20    22   ar
    25    22    23    1
    26     6     7   ar
    27     7     8    1
    28    31    32    1
    29    32    33    1
    30    33    28    1
    31     7     1   ar
    32    22    16   ar
    33    10    14    1
    34    13    15    1
    35     8     9    1
@<TRIPOS>MOLECULE
*****
 33 35 0 0 0
SMALL
GASTEIGER

@<TRIPOS>ATOM
      1 C         139.5728  139.6146  164.1136 C.ar    1  UNL1        0.1508
      2 C         139.0992  138.1996  163.9611 C.ar    1  UNL1        0.0778
      3 CL        138.7765  137.3816  165.1764 Cl      1  UNL1       -0.0808
      4 C         138.9482  137.6025  162.5934 C.ar    1  UNL1        0.0142
      5 C         139.2709  138.4205  161.3782 C.ar    1  UNL1        0.0187
      6 C         139.7445  139.8355  161.5307 C.ar    1  UNL1        0.0870
      7 C         139.8954  140.4326  162.8984 C.ar    1  UNL1        0.1650
      8 O         140.3690  141.8477  163.0509 O.3     1  UNL1       -0.5032
      9 H         140.5706  142.3587  162.2918 H       1  UNL1        0.2923
     10 N         140.0671  140.6535  160.3154 N.am    1  UNL1       -0.2656
     11 C         141.3207  140.3799  159.5384 C.2     1  UNL1        0.3083
     12 O         142.2515  139.2883  159.9765 O.2     1  UNL1       -0.2521
     13 N         141.6434  141.1979  158.3232 N.am    1  UNL1       -0.2672
     14 H         139.4562  141.3700  160.0279 H       1  UNL1        0.1565
     15 H         141.0324  141.9144  158.0356 H       1  UNL1        0.1564
     16 C         142.8969  140.9243  157.5461 C.ar    1  UNL1        0.0644
     17 C         142.9180  139.8339  156.5163 C.ar    1  UNL1        0.0157
     18 C         144.1715  139.5603  155.7393 C.ar    1  UNL1        0.0036
     19 C         145.4039  140.3771  155.9920 C.ar    1  UNL1        0.0306
     20 C         145.3828  141.4676  157.0218 C.ar    1  UNL1        0.1518
     21 F         146.6152  142.2845  157.2744 F       1  UNL1       -0.2032
     22 C         144.1293  141.7412  157.7988 C.ar    1  UNL1        0.0985
     23 CL        144.1082  142.8317  158.8286 Cl      1  UNL1       -0.0786
     24 S         139.7237  140.2117  165.4814 S.O2    1  UNL1        0.0108
     25 O         141.1074  139.6407  165.5779 O.2     1  UNL1       -0.1686
     26 O         138.3400  140.7827  165.3848 O.2     1  UNL1       -0.1686
     27 C         140.3275  142.6001  170.9523 C.3     1  UNL1        0.0896
     28 N         140.1766  142.0030  169.5846 N.3     1  UNL1       -0.2714
     29 C         140.5774  142.7919  168.3734 C.3     1  UNL1        0.0739
     30 C         140.4264  142.1948  167.0057 C.3     1  UNL1        0.0413
     31 C         139.8747  140.8088  166.8491 C.3     1  UNL1        0.1367
     32 C         139.4738  140.0199  168.0603 C.3     1  UNL1        0.0413
     33 C         139.6248  140.6170  169.4280 C.3     1  UNL1        0.0739
@<TRIPOS>BOND
     1    27    28    1
     2    28    29    1
     3    29    30    1
     4    30    31    1
     5    31    24    1
     6    24    25    2
     7    24    26    2
     8    24     1    1
     9     1     2   ar
    10     2     3    1
    11     2     4   ar
    12     4     5   ar
    13     5     6   ar
    14     6    10    1
    15    10    11   am
    16    11    12    2
    17    11    13   am
    18    13    16    1
    19    16    17   ar
    20    17    18   ar
    21    18    19   ar
    22    19    20   ar
    23    20    21    1
    24    20    22   ar
    25    22    23    1
    26     6     7   ar
    27     7     8    1
    28    31    32    1
    29    32    33    1
    30    33    28    1
    31     7     1   ar
    32    22    16   ar
    33    10    14    1
    34    13    15    1
    35     8     9    1
