@<TRIPOS>MOLECULE
*****
 31 35 0 0 0
SMALL
GASTEIGER

@<TRIPOS>ATOM
      1 C         142.1334  138.5700  157.8226 C.2     1  UNL1        0.4052
      2 O         141.9142  139.7716  156.9518 O.2     1  UNL1       -0.2262
      3 N         142.7101  138.7352  159.1973 N.am    1  UNL1       -0.2460
      4 C         142.9844  137.6327  160.1767 C.3     1  UNL1        0.0968
      5 C         143.5577  138.2481  161.4188 C.3     1  UNL1        0.0234
      6 C         144.0972  139.1326  162.5035 C.3     1  UNL1        0.0230
      7 C         143.6377  139.7309  161.2071 C.3     1  UNL1        0.0234
      8 C         143.1138  140.0320  159.8341 C.3     1  UNL1        0.0968
      9 O         141.7757  137.2033  157.3186 O.3     1  UNL1       -0.4277
     10 C         142.8321  136.3269  156.7133 C.3     1  UNL1        0.2589
     11 C         141.2465  131.6244  154.9100 C.3     1  UNL1        0.0754
     12 C         141.8727  132.6883  155.7620 C.ar    1  UNL1        0.1546
     13 C         141.8608  134.1620  155.4826 C.ar    1  UNL1        0.0573
     14 C         142.6015  134.8498  156.5909 C.ar    1  UNL1        0.1441
     15 N         143.0712  133.8013  157.5552 N.ar    1  UNL1       -0.0780
     16 O         142.6207  132.4654  157.0429 O.2     1  UNL1       -0.3580
     17 C         144.6739  139.2978  163.8783 C.3     1  UNL1        0.0898
     18 N         143.8110  139.7984  164.9985 N.am    1  UNL1       -0.3009
     19 C         142.5986  139.0203  165.4165 C.2     1  UNL1        0.2456
     20 O         142.2491  137.7417  164.7144 O.2     1  UNL1       -0.2702
     21 H         144.0404  140.6375  165.4594 H       1  UNL1        0.1497
     22 C         141.7357  139.5209  166.5368 C.2     1  UNL1        0.0525
     23 C         140.2432  139.4024  166.4443 C.2     1  UNL1       -0.0153
     24 C         139.3804  139.9030  167.5645 C.3     1  UNL1        0.0726
     25 C         140.0099  140.5220  168.7771 C.2     1  UNL1        0.0933
     26 N         139.4206  141.1002  170.0295 N.am    1  UNL1       -0.1431
     27 C         140.5488  141.5760  170.8960 C.2     1  UNL1        0.4298
     28 O         140.4141  142.2225  172.2429 O.2     1  UNL1       -0.2238
     29 O         141.8354  141.2919  170.1790 O.3     1  UNL1       -0.4079
     30 C         141.5024  140.6405  168.8696 C.2     1  UNL1        0.1618
     31 C         142.3652  140.1400  167.7494 C.2     1  UNL1        0.0429
@<TRIPOS>BOND
     1    11    12    1
     2    12    13   ar
     3    13    14   ar
     4    14    10    1
     5    10     9    1
     6     9     1    1
     7     1     2    2
     8     1     3   am
     9     3     4    1
    10     5     4    1
    11     5     6    1
    12     6    17    1
    13    17    18    1
    14    18    19   am
    15    19    20    2
    16    19    22    1
    17    22    23    2
    18    23    24    1
    19    24    25    1
    20    25    26    2
    21    26    27    1
    22    27    28    2
    23    27    29    1
    24    29    30    1
    25    30    31    2
    26     6     7    1
    27     7     8    1
    28    14    15   ar
    29    15    16   ar
    30    16    12   ar
    31     8     3    1
    32     7     5    1
    33    31    22    1
    34    30    25    1
    35    18    21    1
@<TRIPOS>MOLECULE
*****
 31 35 0 0 0
SMALL
GASTEIGER

@<TRIPOS>ATOM
      1 C         143.0867  139.5718  158.3800 C.2     1  UNL1        0.4052
      2 O         144.4177  140.1332  157.9757 O.2     1  UNL1       -0.2262
      3 N         142.8650  139.1083  159.7892 N.am    1  UNL1       -0.2460
      4 C         141.5949  138.5279  160.3369 C.3     1  UNL1        0.0968
      5 C         141.8195  138.2046  161.7844 C.3     1  UNL1        0.0234
      6 C         142.3319  137.9935  163.1782 C.3     1  UNL1        0.0230
      7 C         143.2283  138.5852  162.1312 C.3     1  UNL1        0.0234
      8 C         143.8745  139.1437  160.8981 C.3     1  UNL1        0.0968
      9 O         141.9774  139.4740  157.3750 O.3     1  UNL1       -0.4277
     10 C         142.2101  138.7785  156.0665 C.3     1  UNL1        0.2589
     11 C         142.0837  133.5016  155.9320 C.3     1  UNL1        0.0754
     12 C         142.5810  134.9157  155.9851 C.ar    1  UNL1        0.1546
     13 C         141.7292  136.1504  155.9841 C.ar    1  UNL1        0.0573
     14 C         142.6390  137.3413  156.0469 C.ar    1  UNL1        0.1441
     15 N         144.0531  136.8427  156.0868 N.ar    1  UNL1       -0.0780
     16 O         144.0173  135.3436  156.0486 O.2     1  UNL1       -0.3580
     17 C         142.1102  137.5299  164.5875 C.3     1  UNL1        0.0898
     18 N         141.7582  138.5215  165.6566 N.am    1  UNL1       -0.3009
     19 C         142.6904  138.7425  166.8107 C.2     1  UNL1        0.2456
     20 O         143.9746  137.9721  166.8958 O.2     1  UNL1       -0.2702
     21 H         140.9154  139.0272  165.6008 H       1  UNL1        0.1497
     22 C         142.3385  139.7341  167.8799 C.2     1  UNL1        0.0525
     23 C         142.7143  139.4638  169.3066 C.2     1  UNL1       -0.0153
     24 C         142.3623  140.4553  170.3757 C.3     1  UNL1        0.0726
     25 C         141.6345  141.7172  170.0180 C.2     1  UNL1        0.0933
     26 N         141.1578  142.8710  170.8496 N.am    1  UNL1       -0.1431
     27 C         140.4873  143.8544  169.9367 C.2     1  UNL1        0.4298
     28 O         139.8638  145.1555  170.3474 O.2     1  UNL1       -0.2238
     29 O         140.5496  143.3084  168.5410 O.3     1  UNL1       -0.4079
     30 C         141.2587  141.9875  168.5913 C.2     1  UNL1        0.1618
     31 C         141.6106  140.9960  167.5222 C.2     1  UNL1        0.0429
@<TRIPOS>BOND
     1    11    12    1
     2    12    13   ar
     3    13    14   ar
     4    14    10    1
     5    10     9    1
     6     9     1    1
     7     1     2    2
     8     1     3   am
     9     3     4    1
    10     5     4    1
    11     5     6    1
    12     6    17    1
    13    17    18    1
    14    18    19   am
    15    19    20    2
    16    19    22    1
    17    22    23    2
    18    23    24    1
    19    24    25    1
    20    25    26    2
    21    26    27    1
    22    27    28    2
    23    27    29    1
    24    29    30    1
    25    30    31    2
    26     6     7    1
    27     7     8    1
    28    14    15   ar
    29    15    16   ar
    30    16    12   ar
    31     8     3    1
    32     7     5    1
    33    31    22    1
    34    30    25    1
    35    18    21    1
@<TRIPOS>MOLECULE
*****
 31 35 0 0 0
SMALL
GASTEIGER

@<TRIPOS>ATOM
      1 C         142.2444  138.1976  157.1047 C.2     1  UNL1        0.4052
      2 O         143.7195  138.4628  157.1654 O.2     1  UNL1       -0.2262
      3 N         141.3981  138.3820  158.3293 N.am    1  UNL1       -0.2460
      4 C         139.9180  138.1565  158.4204 C.3     1  UNL1        0.0968
      5 C         139.4886  138.4593  159.8254 C.3     1  UNL1        0.0234
      6 C         139.3630  138.8253  161.2746 C.3     1  UNL1        0.0230
      7 C         140.7033  138.8720  160.6026 C.3     1  UNL1        0.0234
      8 C         141.8835  138.8242  159.6780 C.3     1  UNL1        0.0968
      9 O         141.6155  137.7481  155.8192 O.3     1  UNL1       -0.4277
     10 C         142.2413  136.6397  155.0255 C.3     1  UNL1        0.2589
     11 C         144.6482  132.7798  157.7065 C.3     1  UNL1        0.0754
     12 C         143.6337  133.5452  156.9097 C.ar    1  UNL1        0.1546
     13 C         143.7733  134.9600  156.4313 C.ar    1  UNL1        0.0573
     14 C         142.5274  135.3194  155.6774 C.ar    1  UNL1        0.1441
     15 N         141.6178  134.1268  155.6897 N.ar    1  UNL1       -0.0780
     16 O         142.3015  133.0303  156.4513 O.2     1  UNL1       -0.3580
     17 C         138.5168  139.0096  162.4993 C.3     1  UNL1        0.0898
     18 N         138.9790  139.9171  163.6007 N.am    1  UNL1       -0.3009
     19 C         138.9917  139.4291  165.0189 C.2     1  UNL1        0.2456
     20 O         138.5423  138.0336  165.3360 O.2     1  UNL1       -0.2702
     21 H         139.2740  140.8331  163.3926 H       1  UNL1        0.1497
     22 C         139.4538  140.3366  166.1203 C.2     1  UNL1        0.0525
     23 C         140.0022  141.6939  165.7933 C.2     1  UNL1       -0.0153
     24 C         140.4644  142.6013  166.8947 C.3     1  UNL1        0.0726
     25 C         140.3781  142.1514  168.3230 C.2     1  UNL1        0.0933
     26 N         140.7539  142.8222  169.6110 N.am    1  UNL1       -0.1431
     27 C         140.4378  141.8794  170.7340 C.2     1  UNL1        0.4298
     28 O         140.6548  142.1436  172.1946 O.2     1  UNL1       -0.2238
     29 O         139.8666  140.6260  170.1401 O.3     1  UNL1       -0.4079
     30 C         139.8297  140.7941  168.6500 C.2     1  UNL1        0.1618
     31 C         139.3676  139.8867  167.5487 C.2     1  UNL1        0.0429
@<TRIPOS>BOND
     1    11    12    1
     2    12    13   ar
     3    13    14   ar
     4    14    10    1
     5    10     9    1
     6     9     1    1
     7     1     2    2
     8     1     3   am
     9     3     4    1
    10     5     4    1
    11     5     6    1
    12     6    17    1
    13    17    18    1
    14    18    19   am
    15    19    20    2
    16    19    22    1
    17    22    23    2
    18    23    24    1
    19    24    25    1
    20    25    26    2
    21    26    27    1
    22    27    28    2
    23    27    29    1
    24    29    30    1
    25    30    31    2
    26     6     7    1
    27     7     8    1
    28    14    15   ar
    29    15    16   ar
    30    16    12   ar
    31     8     3    1
    32     7     5    1
    33    31    22    1
    34    30    25    1
    35    18    21    1
@<TRIPOS>MOLECULE
*****
 31 35 0 0 0
SMALL
GASTEIGER

@<TRIPOS>ATOM
      1 C         142.7351  138.0151  158.1286 C.2     1  UNL1        0.4052
      2 O         142.4842  138.9636  156.9939 O.2     1  UNL1       -0.2262
      3 N         143.1709  138.5416  159.4638 N.am    1  UNL1       -0.2460
      4 C         143.4578  137.7191  160.6849 C.3     1  UNL1        0.0968
      5 C         143.8605  138.6523  161.7882 C.3     1  UNL1        0.0234
      6 C         144.2188  139.8079  162.6749 C.3     1  UNL1        0.0230
      7 C         143.8224  140.0515  161.2489 C.3     1  UNL1        0.0234
      8 C         143.3962  139.9831  159.8124 C.3     1  UNL1        0.0968
      9 O         142.5502  136.5401  157.9280 O.3     1  UNL1       -0.4277
     10 C         143.1344  135.8683  156.7208 C.3     1  UNL1        0.2589
     11 C         142.4150  130.6856  156.0120 C.3     1  UNL1        0.0754
     12 C         142.2494  132.1739  155.9251 C.ar    1  UNL1        0.1546
     13 C         143.0994  133.1976  156.6176 C.ar    1  UNL1        0.0573
     14 C         142.5800  134.5561  156.2508 C.ar    1  UNL1        0.1441
     15 N         141.4090  134.3721  155.3318 N.ar    1  UNL1       -0.0780
     16 O         141.2046  132.8998  155.1304 O.2     1  UNL1       -0.3580
     17 C         144.6546  140.3344  164.0101 C.3     1  UNL1        0.0898
     18 N         143.7036  140.3167  165.1700 N.am    1  UNL1       -0.3009
     19 C         143.4546  141.5705  165.9548 C.2     1  UNL1        0.2456
     20 O         144.1565  142.8420  165.5798 O.2     1  UNL1       -0.2702
     21 H         143.2429  139.4822  165.4162 H       1  UNL1        0.1497
     22 C         142.5036  141.5528  167.1148 C.2     1  UNL1        0.0525
     23 C         142.6822  142.5216  168.2459 C.2     1  UNL1       -0.0153
     24 C         141.7312  142.5039  169.4057 C.3     1  UNL1        0.0726
     25 C         140.6016  141.5174  169.4345 C.2     1  UNL1        0.0933
     26 N         139.5143  141.2655  170.4367 N.am    1  UNL1       -0.1431
     27 C         138.6638  140.1409  169.9250 C.2     1  UNL1        0.4298
     28 O         137.4625  139.5612  170.6112 O.2     1  UNL1       -0.2238
     29 O         139.2253  139.6979  168.6065 O.3     1  UNL1       -0.4079
     30 C         140.4230  140.5487  168.3033 C.2     1  UNL1        0.1618
     31 C         141.3739  140.5664  167.1435 C.2     1  UNL1        0.0429
@<TRIPOS>BOND
     1    11    12    1
     2    12    13   ar
     3    13    14   ar
     4    14    10    1
     5    10     9    1
     6     9     1    1
     7     1     2    2
     8     1     3   am
     9     3     4    1
    10     5     4    1
    11     5     6    1
    12     6    17    1
    13    17    18    1
    14    18    19   am
    15    19    20    2
    16    19    22    1
    17    22    23    2
    18    23    24    1
    19    24    25    1
    20    25    26    2
    21    26    27    1
    22    27    28    2
    23    27    29    1
    24    29    30    1
    25    30    31    2
    26     6     7    1
    27     7     8    1
    28    14    15   ar
    29    15    16   ar
    30    16    12   ar
    31     8     3    1
    32     7     5    1
    33    31    22    1
    34    30    25    1
    35    18    21    1
@<TRIPOS>MOLECULE
*****
 31 35 0 0 0
SMALL
GASTEIGER

@<TRIPOS>ATOM
      1 C         143.8240  140.0650  158.4206 C.2     1  UNL1        0.4052
      2 O         143.8772  139.2217  157.1811 O.2     1  UNL1       -0.2262
      3 N         143.3096  139.4816  159.7031 N.am    1  UNL1       -0.2460
      4 C         143.1978  140.1990  161.0157 C.3     1  UNL1        0.0968
      5 C         142.6358  139.2390  162.0221 C.3     1  UNL1        0.0234
      6 C         142.0726  138.0786  162.7876 C.3     1  UNL1        0.0230
      7 C         142.4003  137.9285  161.3315 C.3     1  UNL1        0.0234
      8 C         142.8167  138.0784  159.8983 C.3     1  UNL1        0.0968
      9 O         144.2851  141.4917  158.3773 O.3     1  UNL1       -0.4277
     10 C         143.4817  142.5174  157.6339 C.3     1  UNL1        0.2589
     11 C         140.7523  145.0801  161.3572 C.3     1  UNL1        0.0754
     12 C         141.5093  144.7758  160.0985 C.ar    1  UNL1        0.1546
     13 C         142.0993  143.4487  159.7235 C.ar    1  UNL1        0.0573
     14 C         142.7639  143.5979  158.3871 C.ar    1  UNL1        0.1441
     15 N         142.5846  145.0171  157.9361 N.ar    1  UNL1       -0.0780
     16 O         141.8092  145.7452  158.9938 O.2     1  UNL1       -0.3580
     17 C         141.5583  137.4951  164.0702 C.3     1  UNL1        0.0898
     18 N         141.6757  138.2722  165.3479 N.am    1  UNL1       -0.3009
     19 C         140.6640  139.3292  165.6785 C.2     1  UNL1        0.2456
     20 O         139.5350  139.6091  164.7315 O.2     1  UNL1       -0.2702
     21 H         142.4167  138.0885  165.9695 H       1  UNL1        0.1497
     22 C         140.7814  140.1062  166.9562 C.2     1  UNL1        0.0525
     23 C         139.6936  140.0253  167.9859 C.2     1  UNL1       -0.0153
     24 C         139.8110  140.8024  169.2635 C.3     1  UNL1        0.0726
     25 C         141.0162  141.6603  169.5115 C.2     1  UNL1        0.0933
     26 N         141.4063  142.5331  170.6675 N.am    1  UNL1       -0.1431
     27 C         142.7351  143.1533  170.3522 C.2     1  UNL1        0.4298
     28 O         143.4988  144.0973  171.2331 O.2     1  UNL1       -0.2238
     29 O         143.1663  142.6639  169.0014 O.3     1  UNL1       -0.4079
     30 C         142.1040  141.7412  168.4819 C.2     1  UNL1        0.1618
     31 C         141.9866  140.9641  167.2042 C.2     1  UNL1        0.0429
@<TRIPOS>BOND
     1    11    12    1
     2    12    13   ar
     3    13    14   ar
     4    14    10    1
     5    10     9    1
     6     9     1    1
     7     1     2    2
     8     1     3   am
     9     3     4    1
    10     5     4    1
    11     5     6    1
    12     6    17    1
    13    17    18    1
    14    18    19   am
    15    19    20    2
    16    19    22    1
    17    22    23    2
    18    23    24    1
    19    24    25    1
    20    25    26    2
    21    26    27    1
    22    27    28    2
    23    27    29    1
    24    29    30    1
    25    30    31    2
    26     6     7    1
    27     7     8    1
    28    14    15   ar
    29    15    16   ar
    30    16    12   ar
    31     8     3    1
    32     7     5    1
    33    31    22    1
    34    30    25    1
    35    18    21    1
@<TRIPOS>MOLECULE
*****
 31 35 0 0 0
SMALL
GASTEIGER

@<TRIPOS>ATOM
      1 C         137.2284  141.7609  156.9487 C.2     1  UNL1        0.4052
      2 O         137.2663  142.6047  155.7091 O.2     1  UNL1       -0.2262
      3 N         138.1337  142.0801  158.1012 N.am    1  UNL1       -0.2460
      4 C         138.2076  141.3304  159.3983 C.3     1  UNL1        0.0968
      5 C         139.2437  141.9921  160.2578 C.3     1  UNL1        0.0234
      6 C         140.3110  142.8479  160.8730 C.3     1  UNL1        0.0230
      7 C         139.8102  143.1508  159.4919 C.3     1  UNL1        0.0234
      8 C         139.1242  143.2052  158.1591 C.3     1  UNL1        0.0968
      9 O         136.2851  140.5978  157.0357 O.3     1  UNL1       -0.4277
     10 C         135.0854  140.5363  156.1373 C.3     1  UNL1        0.2589
     11 C         129.9277  139.8296  157.0193 C.3     1  UNL1        0.0754
     12 C         131.4178  139.6631  157.0599 C.ar    1  UNL1        0.1546
     13 C         132.4194  140.5054  156.3268 C.ar    1  UNL1        0.0573
     14 C         133.7886  139.9879  156.6544 C.ar    1  UNL1        0.1441
     15 N         133.6333  138.8258  157.5899 N.ar    1  UNL1       -0.0780
     16 O         132.1681  138.6250  157.8405 O.2     1  UNL1       -0.3580
     17 C         141.2163  143.1672  162.0256 C.3     1  UNL1        0.0898
     18 N         141.1094  142.3864  163.3019 N.am    1  UNL1       -0.3009
     19 C         140.0952  142.7752  164.3363 C.2     1  UNL1        0.2456
     20 O         139.1879  143.9449  164.0945 O.2     1  UNL1       -0.2702
     21 H         141.7050  141.6186  163.4606 H       1  UNL1        0.1497
     22 C         139.9884  141.9944  165.6127 C.2     1  UNL1        0.0525
     23 C         139.4202  140.6063  165.5974 C.2     1  UNL1       -0.0153
     24 C         139.3134  139.8256  166.8737 C.3     1  UNL1        0.0726
     25 C         139.7747  140.4330  168.1653 C.2     1  UNL1        0.0933
     26 N         139.7938  139.9087  169.5707 N.am    1  UNL1       -0.1431
     27 C         140.3738  140.9729  170.4545 C.2     1  UNL1        0.4298
     28 O         140.5785  140.8728  171.9371 O.2     1  UNL1       -0.2238
     29 O         140.7131  142.1548  169.5954 O.3     1  UNL1       -0.4079
     30 C         140.3429  141.8211  168.1806 C.2     1  UNL1        0.1618
     31 C         140.4497  142.6018  166.9043 C.2     1  UNL1        0.0429
@<TRIPOS>BOND
     1    11    12    1
     2    12    13   ar
     3    13    14   ar
     4    14    10    1
     5    10     9    1
     6     9     1    1
     7     1     2    2
     8     1     3   am
     9     3     4    1
    10     5     4    1
    11     5     6    1
    12     6    17    1
    13    17    18    1
    14    18    19   am
    15    19    20    2
    16    19    22    1
    17    22    23    2
    18    23    24    1
    19    24    25    1
    20    25    26    2
    21    26    27    1
    22    27    28    2
    23    27    29    1
    24    29    30    1
    25    30    31    2
    26     6     7    1
    27     7     8    1
    28    14    15   ar
    29    15    16   ar
    30    16    12   ar
    31     8     3    1
    32     7     5    1
    33    31    22    1
    34    30    25    1
    35    18    21    1
@<TRIPOS>MOLECULE
*****
 31 35 0 0 0
SMALL
GASTEIGER

@<TRIPOS>ATOM
      1 C         138.0152  140.7198  156.9154 C.2     1  UNL1        0.4052
      2 O         138.8541  140.6880  155.6722 O.2     1  UNL1       -0.2262
      3 N         138.5682  140.1942  158.2069 N.am    1  UNL1       -0.2460
      4 C         137.8513  140.1604  159.5240 C.3     1  UNL1        0.0968
      5 C         138.7752  139.5554  160.5392 C.3     1  UNL1        0.0234
      6 C         139.8979  138.9301  161.3128 C.3     1  UNL1        0.0230
      7 C         140.0630  139.2152  159.8494 C.3     1  UNL1        0.0234
      8 C         139.9350  139.6100  158.4080 C.3     1  UNL1        0.0968
      9 O         136.6235  141.2772  156.8670 O.3     1  UNL1       -0.4277
     10 C         135.6169  140.6996  155.9166 C.3     1  UNL1        0.2589
     11 C         130.3687  140.3299  156.3644 C.3     1  UNL1        0.0754
     12 C         131.8376  140.1558  156.6139 C.ar    1  UNL1        0.1546
     13 C         132.9469  140.7619  155.8064 C.ar    1  UNL1        0.0573
     14 C         134.2498  140.3257  156.4080 C.ar    1  UNL1        0.1441
     15 N         133.9458  139.4502  157.5873 N.ar    1  UNL1       -0.0780
     16 O         132.4549  139.3451  157.7146 O.2     1  UNL1       -0.3580
     17 C         140.4508  138.4045  162.6043 C.3     1  UNL1        0.0898
     18 N         140.7005  139.3407  163.7495 N.am    1  UNL1       -0.3009
     19 C         139.6573  139.5208  164.8121 C.2     1  UNL1        0.2456
     20 O         138.3644  138.7648  164.7296 O.2     1  UNL1       -0.2702
     21 H         141.5491  139.8368  163.8036 H       1  UNL1        0.1497
     22 C         139.9070  140.4569  165.9573 C.2     1  UNL1        0.0525
     23 C         140.2641  141.8892  165.6910 C.2     1  UNL1       -0.0153
     24 C         140.5137  142.8252  166.8362 C.3     1  UNL1        0.0726
     25 C         140.4063  142.3289  168.2476 C.2     1  UNL1        0.0933
     26 N         140.5948  143.0131  169.5692 N.am    1  UNL1       -0.1431
     27 C         140.3541  142.0036  170.6522 C.2     1  UNL1        0.4298
     28 O         140.4363  142.2575  172.1283 O.2     1  UNL1       -0.2238
     29 O         140.0170  140.6956  170.0000 O.3     1  UNL1       -0.4079
     30 C         140.0492  140.8966  168.5139 C.2     1  UNL1        0.1618
     31 C         139.7995  139.9606  167.3687 C.2     1  UNL1        0.0429
@<TRIPOS>BOND
     1    11    12    1
     2    12    13   ar
     3    13    14   ar
     4    14    10    1
     5    10     9    1
     6     9     1    1
     7     1     2    2
     8     1     3   am
     9     3     4    1
    10     5     4    1
    11     5     6    1
    12     6    17    1
    13    17    18    1
    14    18    19   am
    15    19    20    2
    16    19    22    1
    17    22    23    2
    18    23    24    1
    19    24    25    1
    20    25    26    2
    21    26    27    1
    22    27    28    2
    23    27    29    1
    24    29    30    1
    25    30    31    2
    26     6     7    1
    27     7     8    1
    28    14    15   ar
    29    15    16   ar
    30    16    12   ar
    31     8     3    1
    32     7     5    1
    33    31    22    1
    34    30    25    1
    35    18    21    1
@<TRIPOS>MOLECULE
*****
 31 35 0 0 0
SMALL
GASTEIGER

@<TRIPOS>ATOM
      1 C         140.5750  137.4586  156.6589 C.2     1  UNL1        0.4052
      2 O         139.1161  137.7419  156.4551 O.2     1  UNL1       -0.2262
      3 N         141.2358  137.8230  157.9552 N.am    1  UNL1       -0.2460
      4 C         142.6784  137.6024  158.3021 C.3     1  UNL1        0.0968
      5 C         142.9041  138.1151  159.6936 C.3     1  UNL1        0.0234
      6 C         142.8249  138.6995  161.0728 C.3     1  UNL1        0.0230
      7 C         141.6012  138.6526  160.2067 C.3     1  UNL1        0.0234
      8 C         140.5701  138.4721  159.1323 C.3     1  UNL1        0.0968
      9 O         141.3730  136.8109  155.5664 O.3     1  UNL1       -0.4277
     10 C         141.1223  135.3772  155.2035 C.3     1  UNL1        0.2589
     11 C         144.8348  132.8231  157.9556 C.3     1  UNL1        0.0754
     12 C         143.6112  133.1123  157.1376 C.ar    1  UNL1        0.1546
     13 C         143.1775  134.4617  156.6467 C.ar    1  UNL1        0.0573
     14 C         141.9047  134.2863  155.8726 C.ar    1  UNL1        0.1441
     15 N         141.5517  132.8285  155.8851 N.ar    1  UNL1       -0.0780
     16 O         142.6064  132.1029  156.6669 O.2     1  UNL1       -0.3580
     17 C         143.4857  139.0639  162.3691 C.3     1  UNL1        0.0898
     18 N         142.7119  138.9905  163.6521 N.am    1  UNL1       -0.3009
     19 C         142.3182  140.2509  164.3636 C.2     1  UNL1        0.2456
     20 O         142.6983  141.5848  163.7923 O.2     1  UNL1       -0.2702
     21 H         142.4624  138.1151  164.0271 H       1  UNL1        0.1497
     22 C         141.5444  140.1776  165.6465 C.2     1  UNL1        0.0525
     23 C         140.1357  139.6623  165.6443 C.2     1  UNL1       -0.0153
     24 C         139.3619  139.5889  166.9272 C.3     1  UNL1        0.0726
     25 C         139.9969  140.0309  168.2123 C.2     1  UNL1        0.0933
     26 N         139.4852  140.0740  169.6218 N.am    1  UNL1       -0.1431
     27 C         140.5778  140.6160  170.4951 C.2     1  UNL1        0.4298
     28 O         140.4976  140.8288  171.9778 O.2     1  UNL1       -0.2238
     29 O         141.7646  140.9078  169.6253 O.3     1  UNL1       -0.4079
     30 C         141.4055  140.5462  168.2146 C.2     1  UNL1        0.1618
     31 C         142.1793  140.6195  166.9317 C.2     1  UNL1        0.0429
@<TRIPOS>BOND
     1    11    12    1
     2    12    13   ar
     3    13    14   ar
     4    14    10    1
     5    10     9    1
     6     9     1    1
     7     1     2    2
     8     1     3   am
     9     3     4    1
    10     5     4    1
    11     5     6    1
    12     6    17    1
    13    17    18    1
    14    18    19   am
    15    19    20    2
    16    19    22    1
    17    22    23    2
    18    23    24    1
    19    24    25    1
    20    25    26    2
    21    26    27    1
    22    27    28    2
    23    27    29    1
    24    29    30    1
    25    30    31    2
    26     6     7    1
    27     7     8    1
    28    14    15   ar
    29    15    16   ar
    30    16    12   ar
    31     8     3    1
    32     7     5    1
    33    31    22    1
    34    30    25    1
    35    18    21    1
@<TRIPOS>MOLECULE
*****
 31 35 0 0 0
SMALL
GASTEIGER

@<TRIPOS>ATOM
      1 C         142.8687  140.1355  158.3923 C.2     1  UNL1        0.4052
      2 O         141.8919  141.0663  157.7368 O.2     1  UNL1       -0.2262
      3 N         142.5524  139.5379  159.7312 N.am    1  UNL1       -0.2460
      4 C         143.4267  138.5963  160.5051 C.3     1  UNL1        0.0968
      5 C         142.7209  138.2534  161.7836 C.3     1  UNL1        0.0234
      6 C         141.7918  138.1006  162.9512 C.3     1  UNL1        0.0230
      7 C         141.4105  138.9830  161.7997 C.3     1  UNL1        0.0234
      8 C         141.3063  139.7769  160.5313 C.3     1  UNL1        0.0968
      9 O         144.1618  139.8024  157.7088 O.3     1  UNL1       -0.4277
     10 C         144.5204  140.4718  156.4152 C.3     1  UNL1        0.2589
     11 C         149.2294  142.1319  154.6977 C.3     1  UNL1        0.0754
     12 C         147.9733  141.9935  155.5059 C.ar    1  UNL1        0.1546
     13 C         146.8603  141.0221  155.2460 C.ar    1  UNL1        0.0573
     14 C         145.8089  141.2304  156.2953 C.ar    1  UNL1        0.1441
     15 N         146.2720  142.3305  157.2036 N.ar    1  UNL1       -0.0780
     16 O         147.6097  142.8022  156.7158 O.2     1  UNL1       -0.3580
     17 C         141.4755  137.5030  164.2901 C.3     1  UNL1        0.0898
     18 N         141.2128  138.3956  165.4667 N.am    1  UNL1       -0.3009
     19 C         142.3603  138.9805  166.2354 C.2     1  UNL1        0.2456
     20 O         143.7707  138.6729  165.8276 O.2     1  UNL1       -0.2702
     21 H         140.2871  138.5974  165.7344 H       1  UNL1        0.1497
     22 C         142.0976  139.8731  167.4120 C.2     1  UNL1        0.0525
     23 C         142.6000  139.4886  168.7720 C.2     1  UNL1       -0.0153
     24 C         142.3372  140.3812  169.9485 C.3     1  UNL1        0.0726
     25 C         141.5721  141.6582  169.7650 C.2     1  UNL1        0.0933
     26 N         141.1629  142.7308  170.7307 N.am    1  UNL1       -0.1431
     27 C         140.4076  143.7781  169.9673 C.2     1  UNL1        0.4298
     28 O         139.8141  145.0308  170.5407 O.2     1  UNL1       -0.2238
     29 O         140.3500  143.3528  168.5300 O.3     1  UNL1       -0.4079
     30 C         141.0697  142.0427  168.4050 C.2     1  UNL1        0.1618
     31 C         141.3324  141.1501  167.2285 C.2     1  UNL1        0.0429
@<TRIPOS>BOND
     1    11    12    1
     2    12    13   ar
     3    13    14   ar
     4    14    10    1
     5    10     9    1
     6     9     1    1
     7     1     2    2
     8     1     3   am
     9     3     4    1
    10     5     4    1
    11     5     6    1
    12     6    17    1
    13    17    18    1
    14    18    19   am
    15    19    20    2
    16    19    22    1
    17    22    23    2
    18    23    24    1
    19    24    25    1
    20    25    26    2
    21    26    27    1
    22    27    28    2
    23    27    29    1
    24    29    30    1
    25    30    31    2
    26     6     7    1
    27     7     8    1
    28    14    15   ar
    29    15    16   ar
    30    16    12   ar
    31     8     3    1
    32     7     5    1
    33    31    22    1
    34    30    25    1
    35    18    21    1
