@<TRIPOS>MOLECULE
*****
 30 34 0 0 0
SMALL
GASTEIGER

@<TRIPOS>ATOM
      1 O         143.4447  139.4530  156.1070 O.2     1  UNL1       -0.2258
      2 C         143.1814  138.9292  157.4877 C.2     1  UNL1        0.4086
      3 O         143.3068  139.7067  158.7645 O.3     1  UNL1       -0.4396
      4 C         142.9493  138.7941  159.9000 C.3     1  UNL1        0.1624
      5 C         143.3213  140.1829  160.3274 C.3     1  UNL1        0.0825
      6 C         143.3118  140.5477  161.7823 C.3     1  UNL1        0.1713
      7 N         142.9303  139.5236  162.8098 N.pl3   1  UNL1       -0.1932
      8 C         142.5584  138.1348  162.3824 C.3     1  UNL1        0.1713
      9 C         142.5679  137.7700  160.9275 C.3     1  UNL1        0.0825
     10 C         142.6029  137.4526  159.3250 C.3     1  UNL1        0.1416
     11 N         142.7464  137.5361  157.8342 N.am    1  UNL1       -0.2215
     12 C         142.9209  139.8885  164.2648 C.cat   1  UNL1        0.4230
     13 N         143.1371  141.2605  164.8311 N.2     1  UNL1       -0.0678
     14 C         143.0434  141.1653  166.3252 C.2     1  UNL1        0.1887
     15 C         143.1722  142.1966  167.4067 C.2     1  UNL1        0.0433
     16 C         143.0270  141.7971  168.8452 C.2     1  UNL1        0.0706
     17 C         142.7528  140.3662  169.2022 C.2     1  UNL1       -0.0142
     18 C         142.6239  139.3348  168.1207 C.3     1  UNL1        0.0931
     19 C         142.7692  139.7343  166.6822 C.2     1  UNL1        0.1744
     20 N         142.6935  138.9453  165.4088 N.2     1  UNL1       -0.0716
     21 C         143.1558  142.8284  169.9268 C.3     1  UNL1        0.4184
     22 F         143.2847  143.8598  171.0083 F       1  UNL1       -0.1659
     23 F         144.6329  142.5753  169.9922 F       1  UNL1       -0.1659
     24 F         141.6788  143.0816  169.8613 F       1  UNL1       -0.1659
     25 C         142.4984  136.4222  156.8609 C.ar    1  UNL1        0.0571
     26 C         143.4214  135.2405  156.8223 C.ar    1  UNL1        0.0150
     27 C         143.1734  134.1265  155.8489 C.ar    1  UNL1        0.0013
     28 C         142.0023  134.1942  154.9140 C.ar    1  UNL1        0.0001
     29 C         141.0792  135.3759  154.9526 C.ar    1  UNL1        0.0013
     30 C         141.3273  136.4899  155.9260 C.ar    1  UNL1        0.0150
@<TRIPOS>BOND
     1     1     2    2
     2     2     3    1
     3     3     4    1
     4     4     5    1
     5     5     6    1
     6     6     7    1
     7     7    12    1
     8    12    13    2
     9    13    14    1
    10    14    15    2
    11    15    16    1
    12    16    21    1
    13    21    22    1
    14    21    23    1
    15    21    24    1
    16    16    17    2
    17    17    18    1
    18    18    19    1
    19    19    20    2
    20     7     8    1
    21     8     9    1
    22     4    10    1
    23    10    11    1
    24    11    25    1
    25    25    26   ar
    26    26    27   ar
    27    27    28   ar
    28    28    29   ar
    29    29    30   ar
    30    11     2   am
    31    30    25   ar
    32     9     4    1
    33    20    12    1
    34    19    14    1
@<TRIPOS>MOLECULE
*****
 30 34 0 0 0
SMALL
GASTEIGER

@<TRIPOS>ATOM
      1 O         144.3740  139.6387  156.7798 O.2     1  UNL1       -0.2258
      2 C         143.6218  139.4043  158.0562 C.2     1  UNL1        0.4086
      3 O         143.7609  140.1996  159.3205 O.3     1  UNL1       -0.4396
      4 C         142.8234  139.6202  160.3381 C.3     1  UNL1        0.1624
      5 C         143.6166  140.7917  160.8365 C.3     1  UNL1        0.0825
      6 C         143.4304  141.2799  162.2425 C.3     1  UNL1        0.1713
      7 N         142.4509  140.5966  163.1501 N.pl3   1  UNL1       -0.1932
      8 C         141.6576  139.4252  162.6517 C.3     1  UNL1        0.1713
      9 C         141.8439  138.9370  161.2457 C.3     1  UNL1        0.0825
     10 C         142.1048  138.4669  159.7027 C.3     1  UNL1        0.1416
     11 N         142.5982  138.3335  158.2925 N.am    1  UNL1       -0.2215
     12 C         142.2646  141.0849  164.5562 C.cat   1  UNL1        0.4230
     13 N         140.9548  141.4130  165.2094 N.2     1  UNL1       -0.0678
     14 C         141.2362  141.8616  166.6128 C.2     1  UNL1        0.1887
     15 C         140.3331  142.3098  167.7234 C.2     1  UNL1        0.0433
     16 C         140.9138  142.7073  169.0482 C.2     1  UNL1        0.0706
     17 C         142.3975  142.6564  169.2623 C.2     1  UNL1       -0.0142
     18 C         143.3006  142.2082  168.1517 C.3     1  UNL1        0.0931
     19 C         142.7200  141.8108  166.8270 C.2     1  UNL1        0.1744
     20 N         143.3556  141.3307  165.5559 N.2     1  UNL1       -0.0716
     21 C         140.0106  143.1555  170.1588 C.3     1  UNL1        0.4184
     22 F         139.1075  143.6037  171.2693 F       1  UNL1       -0.1659
     23 F         139.4986  141.7535  170.3082 F       1  UNL1       -0.1659
     24 F         140.5226  144.5575  170.0093 F       1  UNL1       -0.1659
     25 C         142.1474  137.3091  157.2939 C.ar    1  UNL1        0.0571
     26 C         140.8998  137.5400  156.4938 C.ar    1  UNL1        0.0150
     27 C         140.4488  136.5156  155.4952 C.ar    1  UNL1        0.0013
     28 C         141.2455  135.2603  155.2966 C.ar    1  UNL1        0.0001
     29 C         142.4932  135.0293  156.0967 C.ar    1  UNL1        0.0013
     30 C         142.9440  136.0538  157.0953 C.ar    1  UNL1        0.0150
@<TRIPOS>BOND
     1     1     2    2
     2     2     3    1
     3     3     4    1
     4     4     5    1
     5     5     6    1
     6     6     7    1
     7     7    12    1
     8    12    13    2
     9    13    14    1
    10    14    15    2
    11    15    16    1
    12    16    21    1
    13    21    22    1
    14    21    23    1
    15    21    24    1
    16    16    17    2
    17    17    18    1
    18    18    19    1
    19    19    20    2
    20     7     8    1
    21     8     9    1
    22     4    10    1
    23    10    11    1
    24    11    25    1
    25    25    26   ar
    26    26    27   ar
    27    27    28   ar
    28    28    29   ar
    29    29    30   ar
    30    11     2   am
    31    30    25   ar
    32     9     4    1
    33    20    12    1
    34    19    14    1
@<TRIPOS>MOLECULE
*****
 30 34 0 0 0
SMALL
GASTEIGER

@<TRIPOS>ATOM
      1 O         143.3295  136.8690  156.9080 O.2     1  UNL1       -0.2258
      2 C         142.6434  137.5955  158.0267 C.2     1  UNL1        0.4086
      3 O         143.1729  137.7720  159.4191 O.3     1  UNL1       -0.4396
      4 C         142.1640  138.5586  160.2024 C.3     1  UNL1        0.1624
      5 C         143.3823  138.1747  160.9887 C.3     1  UNL1        0.0825
      6 C         143.5049  138.5804  162.4276 C.3     1  UNL1        0.1713
      7 N         142.4092  139.3700  163.0801 N.pl3   1  UNL1       -0.1932
      8 C         141.1909  139.7539  162.2938 C.3     1  UNL1        0.1713
      9 C         141.0683  139.3482  160.8550 C.3     1  UNL1        0.0825
     10 C         141.0111  138.8683  159.2941 C.3     1  UNL1        0.1416
     11 N         141.3073  138.2731  157.9495 N.am    1  UNL1       -0.2215
     12 C         142.5318  139.7757  164.5191 C.cat   1  UNL1        0.4230
     13 N         142.8257  141.1574  165.0236 N.2     1  UNL1       -0.0678
     14 C         142.8575  141.1065  166.5224 C.2     1  UNL1        0.1887
     15 C         143.1008  142.1644  167.5576 C.2     1  UNL1        0.0433
     16 C         143.0699  141.8091  169.0147 C.2     1  UNL1        0.0706
     17 C         142.7957  140.3960  169.4364 C.2     1  UNL1       -0.0142
     18 C         142.5524  139.3381  168.4012 C.3     1  UNL1        0.0931
     19 C         142.5833  139.6933  166.9442 C.2     1  UNL1        0.1744
     20 N         142.3820  138.8709  165.7060 N.2     1  UNL1       -0.0716
     21 C         143.3132  142.8669  170.0499 C.3     1  UNL1        0.4184
     22 F         143.5564  143.9248  171.0851 F       1  UNL1       -0.1659
     23 F         141.8636  143.2494  169.9997 F       1  UNL1       -0.1659
     24 F         144.7627  142.4845  170.1001 F       1  UNL1       -0.1659
     25 C         140.4229  138.3431  156.7401 C.ar    1  UNL1        0.0571
     26 C         139.7493  137.1035  156.2308 C.ar    1  UNL1        0.0150
     27 C         138.8648  137.1735  155.0213 C.ar    1  UNL1        0.0013
     28 C         138.6540  138.4833  154.3212 C.ar    1  UNL1        0.0001
     29 C         139.3276  139.7230  154.8305 C.ar    1  UNL1        0.0013
     30 C         140.2121  139.6528  156.0400 C.ar    1  UNL1        0.0150
@<TRIPOS>BOND
     1     1     2    2
     2     2     3    1
     3     3     4    1
     4     4     5    1
     5     5     6    1
     6     6     7    1
     7     7    12    1
     8    12    13    2
     9    13    14    1
    10    14    15    2
    11    15    16    1
    12    16    21    1
    13    21    22    1
    14    21    23    1
    15    21    24    1
    16    16    17    2
    17    17    18    1
    18    18    19    1
    19    19    20    2
    20     7     8    1
    21     8     9    1
    22     4    10    1
    23    10    11    1
    24    11    25    1
    25    25    26   ar
    26    26    27   ar
    27    27    28   ar
    28    28    29   ar
    29    29    30   ar
    30    11     2   am
    31    30    25   ar
    32     9     4    1
    33    20    12    1
    34    19    14    1
@<TRIPOS>MOLECULE
*****
 30 34 0 0 0
SMALL
GASTEIGER

@<TRIPOS>ATOM
      1 O         139.3139  140.2917  166.7965 O.2     1  UNL1       -0.2258
      2 C         139.9551  141.3349  165.9303 C.2     1  UNL1        0.4086
      3 O         139.6972  141.5468  164.4678 O.3     1  UNL1       -0.4396
      4 C         140.5495  142.6923  164.0080 C.3     1  UNL1        0.1624
      5 C         139.7022  142.0899  162.9268 C.3     1  UNL1        0.0825
      6 C         139.7597  142.6423  161.5334 C.3     1  UNL1        0.1713
      7 N         140.6646  143.7972  161.2213 N.pl3   1  UNL1       -0.1932
      8 C         141.5120  144.3996  162.3025 C.3     1  UNL1        0.1713
      9 C         141.4544  143.8472  163.6958 C.3     1  UNL1        0.0825
     10 C         141.3341  143.1884  165.1863 C.3     1  UNL1        0.1416
     11 N         140.9668  142.3496  166.3743 N.am    1  UNL1       -0.2215
     12 C         140.7222  144.3496  159.8278 C.cat   1  UNL1        0.4230
     13 N         139.9387  145.5192  159.3100 N.2     1  UNL1       -0.0678
     14 C         140.3057  145.7218  157.8698 C.2     1  UNL1        0.1887
     15 C         139.8504  146.7223  156.8492 C.2     1  UNL1        0.0433
     16 C         140.4054  146.6785  155.4563 C.2     1  UNL1        0.0706
     17 C         141.4156  145.6341  155.0840 C.2     1  UNL1       -0.0142
     18 C         141.8709  144.6335  156.1046 C.3     1  UNL1        0.0931
     19 C         141.3159  144.6773  157.4974 C.2     1  UNL1        0.1744
     20 N         141.5734  143.8293  158.7076 N.2     1  UNL1       -0.0716
     21 C         139.9501  147.6790  154.4357 C.3     1  UNL1        0.4184
     22 F         139.4949  148.6796  153.4151 F       1  UNL1       -0.1659
     23 F         140.9587  147.1450  153.4622 F       1  UNL1       -0.1659
     24 F         138.9415  148.2130  155.4091 F       1  UNL1       -0.1659
     25 C         141.5148  142.4990  167.7625 C.ar    1  UNL1        0.0571
     26 C         140.6365  143.0134  168.8642 C.ar    1  UNL1        0.0150
     27 C         141.1846  143.1628  170.2525 C.ar    1  UNL1        0.0013
     28 C         142.6110  142.7979  170.5390 C.ar    1  UNL1        0.0001
     29 C         143.4895  142.2835  169.4372 C.ar    1  UNL1        0.0013
     30 C         142.9413  142.1341  168.0490 C.ar    1  UNL1        0.0150
@<TRIPOS>BOND
     1     1     2    2
     2     2     3    1
     3     3     4    1
     4     4     5    1
     5     5     6    1
     6     6     7    1
     7     7    12    1
     8    12    13    2
     9    13    14    1
    10    14    15    2
    11    15    16    1
    12    16    21    1
    13    21    22    1
    14    21    23    1
    15    21    24    1
    16    16    17    2
    17    17    18    1
    18    18    19    1
    19    19    20    2
    20     7     8    1
    21     8     9    1
    22     4    10    1
    23    10    11    1
    24    11    25    1
    25    25    26   ar
    26    26    27   ar
    27    27    28   ar
    28    28    29   ar
    29    29    30   ar
    30    11     2   am
    31    30    25   ar
    32     9     4    1
    33    20    12    1
    34    19    14    1
@<TRIPOS>MOLECULE
*****
 30 34 0 0 0
SMALL
GASTEIGER

@<TRIPOS>ATOM
      1 O         137.5023  138.5856  166.7281 O.2     1  UNL1       -0.2258
      2 C         138.3152  139.5447  165.9100 C.2     1  UNL1        0.4086
      3 O         138.0213  139.9721  164.5024 O.3     1  UNL1       -0.4396
      4 C         139.0892  140.9363  164.0783 C.3     1  UNL1        0.1624
      5 C         138.0556  140.6684  163.0248 C.3     1  UNL1        0.0825
      6 C         138.1526  141.3453  161.6897 C.3     1  UNL1        0.1713
      7 N         139.2832  142.2900  161.4082 N.pl3   1  UNL1       -0.1932
      8 C         140.3168  142.5579  162.4617 C.3     1  UNL1        0.1713
      9 C         140.2198  141.8811  163.7967 C.3     1  UNL1        0.0825
     10 C         140.0431  141.1049  165.2237 C.3     1  UNL1        0.1416
     11 N         139.5647  140.2448  166.3557 N.am    1  UNL1       -0.2215
     12 C         139.3802  142.9669  160.0730 C.cat   1  UNL1        0.4230
     13 N         139.8102  144.3835  159.8318 N.2     1  UNL1       -0.0678
     14 C         139.7599  144.6380  158.3544 C.2     1  UNL1        0.1887
     15 C         140.0744  145.8538  157.5341 C.2     1  UNL1        0.0433
     16 C         139.9278  145.8103  156.0419 C.2     1  UNL1        0.0706
     17 C         139.4668  144.5509  155.3700 C.2     1  UNL1       -0.0142
     18 C         139.1523  143.3351  156.1903 C.3     1  UNL1        0.0931
     19 C         139.2988  143.3787  157.6825 C.2     1  UNL1        0.1744
     20 N         139.0641  142.3458  158.7447 N.2     1  UNL1       -0.0716
     21 C         140.2423  147.0261  155.2216 C.3     1  UNL1        0.4184
     22 F         140.5569  148.2419  154.4013 F       1  UNL1       -0.1659
     23 F         141.3034  146.2583  154.4904 F       1  UNL1       -0.1659
     24 F         139.1813  147.7939  155.9528 F       1  UNL1       -0.1659
     25 C         140.2207  140.1088  167.6977 C.ar    1  UNL1        0.0571
     26 C         141.6769  139.7607  167.7889 C.ar    1  UNL1        0.0150
     27 C         142.3328  139.6247  169.1310 C.ar    1  UNL1        0.0013
     28 C         141.5326  139.8366  170.3819 C.ar    1  UNL1        0.0001
     29 C         140.0763  140.1847  170.2907 C.ar    1  UNL1        0.0013
     30 C         139.4204  140.3207  168.9486 C.ar    1  UNL1        0.0150
@<TRIPOS>BOND
     1     1     2    2
     2     2     3    1
     3     3     4    1
     4     4     5    1
     5     5     6    1
     6     6     7    1
     7     7    12    1
     8    12    13    2
     9    13    14    1
    10    14    15    2
    11    15    16    1
    12    16    21    1
    13    21    22    1
    14    21    23    1
    15    21    24    1
    16    16    17    2
    17    17    18    1
    18    18    19    1
    19    19    20    2
    20     7     8    1
    21     8     9    1
    22     4    10    1
    23    10    11    1
    24    11    25    1
    25    25    26   ar
    26    26    27   ar
    27    27    28   ar
    28    28    29   ar
    29    29    30   ar
    30    11     2   am
    31    30    25   ar
    32     9     4    1
    33    20    12    1
    34    19    14    1
@<TRIPOS>MOLECULE
*****
 30 34 0 0 0
SMALL
GASTEIGER

@<TRIPOS>ATOM
      1 O         143.3355  139.2799  156.9779 O.2     1  UNL1       -0.2258
      2 C         143.5716  140.2211  158.1217 C.2     1  UNL1        0.4086
      3 O         143.0327  140.0701  159.5135 O.3     1  UNL1       -0.4396
      4 C         143.5160  141.2343  160.3266 C.3     1  UNL1        0.1624
      5 C         142.6584  140.2702  161.0913 C.3     1  UNL1        0.0825
      6 C         142.3570  140.5200  162.5393 C.3     1  UNL1        0.1713
      7 N         142.9134  141.7339  163.2225 N.pl3   1  UNL1       -0.1932
      8 C         143.7710  142.6980  162.4578 C.3     1  UNL1        0.1713
      9 C         144.0724  142.4482  161.0098 C.3     1  UNL1        0.0825
     10 C         144.3537  142.1048  159.4373 C.3     1  UNL1        0.1416
     11 N         144.3880  141.4786  158.0747 N.am    1  UNL1       -0.2215
     12 C         142.6120  141.9837  164.6706 C.cat   1  UNL1        0.4230
     13 N         141.2724  142.3400  165.2437 N.2     1  UNL1       -0.0678
     14 C         141.4298  142.4976  166.7270 C.2     1  UNL1        0.1887
     15 C         140.4504  142.8434  167.8092 C.2     1  UNL1        0.0433
     16 C         140.9079  142.9302  169.2352 C.2     1  UNL1        0.0706
     17 C         142.3448  142.6712  169.5788 C.2     1  UNL1       -0.0142
     18 C         143.3243  142.3254  168.4967 C.3     1  UNL1        0.0931
     19 C         142.8668  142.2386  167.0708 C.2     1  UNL1        0.1744
     20 N         143.5974  141.9210  165.7998 N.2     1  UNL1       -0.0716
     21 C         139.9285  143.2760  170.3173 C.3     1  UNL1        0.4184
     22 F         138.9490  143.6218  171.3995 F       1  UNL1       -0.1659
     23 F         139.4435  141.8566  170.3320 F       1  UNL1       -0.1659
     24 F         140.4134  144.6954  170.3027 F       1  UNL1       -0.1659
     25 C         145.1116  142.0157  156.8756 C.ar    1  UNL1        0.0571
     26 C         146.5752  142.3321  156.9625 C.ar    1  UNL1        0.0150
     27 C         147.2989  142.8692  155.7633 C.ar    1  UNL1        0.0013
     28 C         146.5589  143.0898  154.4773 C.ar    1  UNL1        0.0001
     29 C         145.0952  142.7733  154.3905 C.ar    1  UNL1        0.0013
     30 C         144.3716  142.2362  155.5896 C.ar    1  UNL1        0.0150
@<TRIPOS>BOND
     1     1     2    2
     2     2     3    1
     3     3     4    1
     4     4     5    1
     5     5     6    1
     6     6     7    1
     7     7    12    1
     8    12    13    2
     9    13    14    1
    10    14    15    2
    11    15    16    1
    12    16    21    1
    13    21    22    1
    14    21    23    1
    15    21    24    1
    16    16    17    2
    17    17    18    1
    18    18    19    1
    19    19    20    2
    20     7     8    1
    21     8     9    1
    22     4    10    1
    23    10    11    1
    24    11    25    1
    25    25    26   ar
    26    26    27   ar
    27    27    28   ar
    28    28    29   ar
    29    29    30   ar
    30    11     2   am
    31    30    25   ar
    32     9     4    1
    33    20    12    1
    34    19    14    1
@<TRIPOS>MOLECULE
*****
 30 34 0 0 0
SMALL
GASTEIGER

@<TRIPOS>ATOM
      1 O         143.7288  142.6151  167.9774 O.2     1  UNL1       -0.2258
      2 C         142.8002  142.7468  166.8069 C.2     1  UNL1        0.4086
      3 O         143.1680  143.2475  165.4415 O.3     1  UNL1       -0.4396
      4 C         141.9358  143.2111  164.5869 C.3     1  UNL1        0.1624
      5 C         143.1560  143.7177  163.8768 C.3     1  UNL1        0.0825
      6 C         143.0685  144.1317  162.4377 C.3     1  UNL1        0.1713
      7 N         141.7608  144.0393  161.7089 N.pl3   1  UNL1       -0.1932
      8 C         140.5405  143.5327  162.4190 C.3     1  UNL1        0.1713
      9 C         140.6280  143.1187  163.8581 C.3     1  UNL1        0.0825
     10 C         140.8064  142.6879  165.4241 C.3     1  UNL1        0.1416
     11 N         141.3406  142.4010  166.7961 N.am    1  UNL1       -0.2215
     12 C         141.6733  144.4534  160.2698 C.cat   1  UNL1        0.4230
     13 N         140.7399  145.4820  159.7034 N.2     1  UNL1       -0.0678
     14 C         140.9937  145.5759  158.2281 C.2     1  UNL1        0.1887
     15 C         140.3729  146.4198  157.1546 C.2     1  UNL1        0.0433
     16 C         140.8423  146.2930  155.7355 C.2     1  UNL1        0.0706
     17 C         141.9324  145.3224  155.3900 C.2     1  UNL1       -0.0142
     18 C         142.5532  144.4785  156.4635 C.3     1  UNL1        0.0931
     19 C         142.0839  144.6052  157.8825 C.2     1  UNL1        0.1744
     20 N         142.5039  143.9115  159.1444 N.2     1  UNL1       -0.0716
     21 C         140.2215  147.1369  154.6620 C.3     1  UNL1        0.4184
     22 F         139.6006  147.9809  153.5885 F       1  UNL1       -0.1659
     23 F         139.2827  147.7296  155.6707 F       1  UNL1       -0.1659
     24 F         141.1602  146.5443  153.6532 F       1  UNL1       -0.1659
     25 C         140.5535  141.8627  167.9539 C.ar    1  UNL1        0.0571
     26 C         139.9084  140.5119  167.8590 C.ar    1  UNL1        0.0150
     27 C         139.1213  139.9736  169.0169 C.ar    1  UNL1        0.0013
     28 C         138.9792  140.7862  170.2697 C.ar    1  UNL1        0.0001
     29 C         139.6243  142.1371  170.3646 C.ar    1  UNL1        0.0013
     30 C         140.4114  142.6753  169.2067 C.ar    1  UNL1        0.0150
@<TRIPOS>BOND
     1     1     2    2
     2     2     3    1
     3     3     4    1
     4     4     5    1
     5     5     6    1
     6     6     7    1
     7     7    12    1
     8    12    13    2
     9    13    14    1
    10    14    15    2
    11    15    16    1
    12    16    21    1
    13    21    22    1
    14    21    23    1
    15    21    24    1
    16    16    17    2
    17    17    18    1
    18    18    19    1
    19    19    20    2
    20     7     8    1
    21     8     9    1
    22     4    10    1
    23    10    11    1
    24    11    25    1
    25    25    26   ar
    26    26    27   ar
    27    27    28   ar
    28    28    29   ar
    29    29    30   ar
    30    11     2   am
    31    30    25   ar
    32     9     4    1
    33    20    12    1
    34    19    14    1
@<TRIPOS>MOLECULE
*****
 30 34 0 0 0
SMALL
GASTEIGER

@<TRIPOS>ATOM
      1 O         139.9743  139.6883  166.5711 O.2     1  UNL1       -0.2258
      2 C         140.2924  140.8783  165.7152 C.2     1  UNL1        0.4086
      3 O         139.9685  141.0284  164.2582 O.3     1  UNL1       -0.4396
      4 C         140.4661  142.3701  163.8085 C.3     1  UNL1        0.1624
      5 C         139.8049  141.5703  162.7255 C.3     1  UNL1        0.0825
      6 C         139.6911  142.1339  161.3401 C.3     1  UNL1        0.1713
      7 N         140.2385  143.4973  161.0377 N.pl3   1  UNL1       -0.1932
      8 C         140.8997  144.2971  162.1208 C.3     1  UNL1        0.1713
      9 C         141.0135  143.7336  163.5062 C.3     1  UNL1        0.0825
     10 C         141.0976  143.0493  164.9876 C.3     1  UNL1        0.1416
     11 N         140.9902  142.1274  166.1659 N.am    1  UNL1       -0.2215
     12 C         140.1246  144.0609  159.6523 C.cat   1  UNL1        0.4230
     13 N         140.0402  145.5156  159.2963 N.2     1  UNL1       -0.0678
     14 C         139.9386  145.6224  157.8036 C.2     1  UNL1        0.1887
     15 C         139.8292  146.8048  156.8871 C.2     1  UNL1        0.0433
     16 C         139.7414  146.5984  155.4039 C.2     1  UNL1        0.0706
     17 C         139.7631  145.2097  154.8373 C.2     1  UNL1       -0.0142
     18 C         139.8725  144.0274  155.7538 C.3     1  UNL1        0.0931
     19 C         139.9603  144.2337  157.2369 C.2     1  UNL1        0.1744
     20 N         140.0752  143.2686  158.3795 N.2     1  UNL1       -0.0716
     21 C         139.6320  147.7808  154.4873 C.3     1  UNL1        0.4184
     22 F         139.5226  148.9631  153.5708 F       1  UNL1       -0.1659
     23 F         138.5773  148.3716  155.3754 F       1  UNL1       -0.1659
     24 F         140.6866  147.1900  153.5993 F       1  UNL1       -0.1659
     25 C         141.4924  142.4056  167.5516 C.ar    1  UNL1        0.0571
     26 C         140.5775  143.0136  168.5730 C.ar    1  UNL1        0.0150
     27 C         141.0798  143.2918  169.9588 C.ar    1  UNL1        0.0013
     28 C         142.4970  142.9619  170.3232 C.ar    1  UNL1        0.0001
     29 C         143.4119  142.3538  169.3018 C.ar    1  UNL1        0.0013
     30 C         142.9096  142.0756  167.9161 C.ar    1  UNL1        0.0150
@<TRIPOS>BOND
     1     1     2    2
     2     2     3    1
     3     3     4    1
     4     4     5    1
     5     5     6    1
     6     6     7    1
     7     7    12    1
     8    12    13    2
     9    13    14    1
    10    14    15    2
    11    15    16    1
    12    16    21    1
    13    21    22    1
    14    21    23    1
    15    21    24    1
    16    16    17    2
    17    17    18    1
    18    18    19    1
    19    19    20    2
    20     7     8    1
    21     8     9    1
    22     4    10    1
    23    10    11    1
    24    11    25    1
    25    25    26   ar
    26    26    27   ar
    27    27    28   ar
    28    28    29   ar
    29    29    30   ar
    30    11     2   am
    31    30    25   ar
    32     9     4    1
    33    20    12    1
    34    19    14    1
@<TRIPOS>MOLECULE
*****
 30 34 0 0 0
SMALL
GASTEIGER

@<TRIPOS>ATOM
      1 O         142.8293  143.7120  156.1211 O.2     1  UNL1       -0.2258
      2 C         143.3537  143.2674  157.4542 C.2     1  UNL1        0.4086
      3 O         142.6645  143.4407  158.7753 O.3     1  UNL1       -0.4396
      4 C         143.5443  142.8517  159.8379 C.3     1  UNL1        0.1624
      5 C         142.2634  143.4326  160.3591 C.3     1  UNL1        0.0825
      6 C         141.9630  143.3887  161.8281 C.3     1  UNL1        0.1713
      7 N         142.9435  142.7639  162.7757 N.pl3   1  UNL1       -0.1932
      8 C         144.2245  142.1830  162.2545 C.3     1  UNL1        0.1713
      9 C         144.5249  142.2269  160.7856 C.3     1  UNL1        0.0825
     10 C         144.7772  142.3144  159.1736 C.3     1  UNL1        0.1416
     11 N         144.6595  142.5712  157.7004 N.am    1  UNL1       -0.2215
     12 C         142.6431  142.7200  164.2447 C.cat   1  UNL1        0.4230
     13 N         141.3090  142.9781  164.8799 N.2     1  UNL1       -0.0678
     14 C         141.4654  142.8279  166.3642 C.2     1  UNL1        0.1887
     15 C         140.4899  142.9653  167.4953 C.2     1  UNL1        0.0433
     16 C         140.9452  142.7518  168.9085 C.2     1  UNL1        0.0706
     17 C         142.3760  142.4009  169.1906 C.2     1  UNL1       -0.0142
     18 C         143.3516  142.2635  168.0595 C.3     1  UNL1        0.0931
     19 C         142.8963  142.4770  166.6463 C.2     1  UNL1        0.1744
     20 N         143.6241  142.4103  165.3364 N.2     1  UNL1       -0.0716
     21 C         139.9696  142.8892  170.0396 C.3     1  UNL1        0.4184
     22 F         138.9941  143.0266  171.1707 F       1  UNL1       -0.1659
     23 F         140.3555  144.3301  170.1974 F       1  UNL1       -0.1659
     24 F         139.5837  141.4483  169.8818 F       1  UNL1       -0.1659
     25 C         145.6699  142.1976  156.6568 C.ar    1  UNL1        0.0571
     26 C         145.2435  141.4293  155.4412 C.ar    1  UNL1        0.0150
     27 C         146.2541  141.0556  154.3975 C.ar    1  UNL1        0.0013
     28 C         147.6909  141.4504  154.5694 C.ar    1  UNL1        0.0001
     29 C         148.1174  142.2188  155.7851 C.ar    1  UNL1        0.0013
     30 C         147.1068  142.5923  156.8288 C.ar    1  UNL1        0.0150
@<TRIPOS>BOND
     1     1     2    2
     2     2     3    1
     3     3     4    1
     4     4     5    1
     5     5     6    1
     6     6     7    1
     7     7    12    1
     8    12    13    2
     9    13    14    1
    10    14    15    2
    11    15    16    1
    12    16    21    1
    13    21    22    1
    14    21    23    1
    15    21    24    1
    16    16    17    2
    17    17    18    1
    18    18    19    1
    19    19    20    2
    20     7     8    1
    21     8     9    1
    22     4    10    1
    23    10    11    1
    24    11    25    1
    25    25    26   ar
    26    26    27   ar
    27    27    28   ar
    28    28    29   ar
    29    29    30   ar
    30    11     2   am
    31    30    25   ar
    32     9     4    1
    33    20    12    1
    34    19    14    1
