@<TRIPOS>MOLECULE
*****
 26 29 0 0 0
SMALL
GASTEIGER

@<TRIPOS>ATOM
      1 C         140.0297  138.5566  161.0037 C.ar    1  UNL1        0.1245
      2 C         140.4511  138.9348  162.3927 C.ar    1  UNL1        0.0626
      3 C         139.2291  138.9403  163.2625 C.ar    1  UNL1        0.1769
      4 O         138.0524  138.5655  162.4111 O.2     1  UNL1       -0.3534
      5 N         138.5472  138.3283  161.0150 N.ar    1  UNL1       -0.0769
      6 C         139.1905  139.2639  164.7267 C.ar    1  UNL1        0.0370
      7 C         138.3292  138.4553  165.6510 C.ar    1  UNL1        0.0032
      8 C         138.2906  138.7789  167.1152 C.ar    1  UNL1        0.0044
      9 C         139.1133  139.9110  167.6550 C.ar    1  UNL1        0.0512
     10 C         139.9746  140.7196  166.7307 C.ar    1  UNL1        0.0022
     11 C         140.0131  140.3961  165.2666 C.ar    1  UNL1        0.0007
     12 C         140.6712  141.7688  167.5455 C.3     1  UNL1        0.1205
     13 N         140.2405  141.6087  168.9734 N.am    1  UNL1       -0.2736
     14 C         139.2777  140.4605  169.0411 C.2     1  UNL1        0.2490
     15 O         138.5984  139.9512  170.2777 O.2     1  UNL1       -0.2699
     16 C         140.6932  142.4492  170.1304 C.3     1  UNL1        0.0761
     17 C         141.3941  141.8104  171.2926 C.3     1  UNL1        0.0215
     18 C         140.4451  143.9285  170.1252 C.3     1  UNL1        0.0215
     19 C         142.7375  138.1739  157.4300 C.ar    1  UNL1        0.2250
     20 C         141.2505  138.2306  157.2416 C.ar    1  UNL1        0.0578
     21 C         140.3479  138.3581  158.4328 C.ar    1  UNL1        0.0079
     22 C         140.9323  138.4290  159.8124 C.ar    1  UNL1        0.0403
     23 C         142.4194  138.3723  160.0008 C.ar    1  UNL1        0.1036
     24 N         143.3220  138.2447  158.8097 N.ar    1  UNL1       -0.2101
     25 C         143.9751  136.6897  155.6935 C.3     1  UNL1        0.2542
     26 O         143.6401  138.0463  156.2388 O.3     1  UNL1       -0.4561
@<TRIPOS>BOND
     1    25    26    1
     2    26    19    1
     3    19    20   ar
     4    20    21   ar
     5    21    22   ar
     6    22     1    1
     7     1     2   ar
     8     2     3   ar
     9     3     6    1
    10     6     7   ar
    11     7     8   ar
    12     8     9   ar
    13     9    10   ar
    14    10    11   ar
    15    10    12    1
    16    12    13    1
    17    13    16    1
    18    16    17    1
    19    16    18    1
    20    13    14   am
    21    14    15    2
    22     3     4   ar
    23     4     5   ar
    24    22    23   ar
    25    23    24   ar
    26    24    19   ar
    27     5     1   ar
    28    11     6   ar
    29    14     9    1
@<TRIPOS>MOLECULE
*****
 26 29 0 0 0
SMALL
GASTEIGER

@<TRIPOS>ATOM
      1 C         139.4243  138.8407  160.6255 C.ar    1  UNL1        0.1245
      2 C         139.0359  139.5308  161.8994 C.ar    1  UNL1        0.0626
      3 C         139.6183  138.7548  163.0433 C.ar    1  UNL1        0.1769
      4 O         140.3668  137.5849  162.4764 O.2     1  UNL1       -0.3534
      5 N         140.2469  137.6380  160.9821 N.ar    1  UNL1       -0.0769
      6 C         139.4772  139.0897  164.4986 C.ar    1  UNL1        0.0370
      7 C         138.5027  138.3326  165.3514 C.ar    1  UNL1        0.0032
      8 C         138.3616  138.6676  166.8066 C.ar    1  UNL1        0.0044
      9 C         139.1949  139.7596  167.4092 C.ar    1  UNL1        0.0512
     10 C         140.1694  140.5166  166.5564 C.ar    1  UNL1        0.0022
     11 C         140.3105  140.1817  165.1012 C.ar    1  UNL1        0.0007
     12 C         140.8506  141.5341  167.4229 C.3     1  UNL1        0.1205
     13 N         140.2971  141.4058  168.8111 N.am    1  UNL1       -0.2736
     14 C         139.2738  140.3091  168.8027 C.2     1  UNL1        0.2490
     15 O         138.4705  139.8437  169.9808 O.2     1  UNL1       -0.2699
     16 C         140.6968  142.2297  169.9993 C.3     1  UNL1        0.0761
     17 C         141.3553  141.5762  171.1778 C.3     1  UNL1        0.0215
     18 C         140.4379  143.7072  170.0087 C.3     1  UNL1        0.0215
     19 C         138.3166  140.1484  156.4647 C.ar    1  UNL1        0.2250
     20 C         139.4468  139.1843  156.6719 C.ar    1  UNL1        0.0578
     21 C         139.8161  138.7483  158.0588 C.ar    1  UNL1        0.0079
     22 C         139.0551  139.2766  159.2386 C.ar    1  UNL1        0.0403
     23 C         137.9249  140.2408  159.0314 C.ar    1  UNL1        0.1036
     24 N         137.5556  140.6767  157.6445 N.ar    1  UNL1       -0.2101
     25 C         137.3185  141.9280  154.8564 C.3     1  UNL1        0.2542
     26 O         137.9474  140.5843  155.0778 O.3     1  UNL1       -0.4561
@<TRIPOS>BOND
     1    25    26    1
     2    26    19    1
     3    19    20   ar
     4    20    21   ar
     5    21    22   ar
     6    22     1    1
     7     1     2   ar
     8     2     3   ar
     9     3     6    1
    10     6     7   ar
    11     7     8   ar
    12     8     9   ar
    13     9    10   ar
    14    10    11   ar
    15    10    12    1
    16    12    13    1
    17    13    16    1
    18    16    17    1
    19    16    18    1
    20    13    14   am
    21    14    15    2
    22     3     4   ar
    23     4     5   ar
    24    22    23   ar
    25    23    24   ar
    26    24    19   ar
    27     5     1   ar
    28    11     6   ar
    29    14     9    1
@<TRIPOS>MOLECULE
*****
 26 29 0 0 0
SMALL
GASTEIGER

@<TRIPOS>ATOM
      1 C         140.3010  144.7977  160.5234 C.ar    1  UNL1        0.1245
      2 C         140.3758  143.5506  161.3536 C.ar    1  UNL1        0.0626
      3 C         139.7087  143.8280  162.6681 C.ar    1  UNL1        0.1769
      4 O         139.2215  145.2466  162.6504 O.2     1  UNL1       -0.3534
      5 N         139.5875  145.8459  161.3249 N.ar    1  UNL1       -0.0769
      6 C         139.5556  142.8572  163.8014 C.ar    1  UNL1        0.0370
      7 C         138.4273  141.8690  163.7951 C.ar    1  UNL1        0.0032
      8 C         138.2742  140.8983  164.9284 C.ar    1  UNL1        0.0044
      9 C         139.2495  140.9159  166.0679 C.ar    1  UNL1        0.0512
     10 C         140.3779  141.9042  166.0741 C.ar    1  UNL1        0.0022
     11 C         140.5309  142.8748  164.9409 C.ar    1  UNL1        0.0007
     12 C         141.1780  141.6862  167.3240 C.3     1  UNL1        0.1205
     13 N         140.5442  140.5632  168.0903 N.am    1  UNL1       -0.2736
     14 C         139.3523  140.0871  167.3139 C.2     1  UNL1        0.2490
     15 O         138.4258  138.9771  167.7135 O.2     1  UNL1       -0.2699
     16 C         141.0189  140.0129  169.4025 C.3     1  UNL1        0.0761
     17 C         142.3664  139.3612  169.4990 C.3     1  UNL1        0.0215
     18 C         140.1461  140.1145  170.6182 C.3     1  UNL1        0.0215
     19 C         141.9305  145.3055  156.3597 C.ar    1  UNL1        0.2250
     20 C         140.6987  146.0516  156.7791 C.ar    1  UNL1        0.0578
     21 C         140.1555  145.8823  158.1671 C.ar    1  UNL1        0.0079
     22 C         140.8442  144.9670  159.1355 C.ar    1  UNL1        0.0403
     23 C         142.0760  144.2209  158.7160 C.ar    1  UNL1        0.1036
     24 N         142.6192  144.3900  157.3282 N.ar    1  UNL1       -0.2101
     25 C         143.2433  144.3605  154.3266 C.3     1  UNL1        0.2542
     26 O         142.4737  145.4747  154.9718 O.3     1  UNL1       -0.4561
@<TRIPOS>BOND
     1    25    26    1
     2    26    19    1
     3    19    20   ar
     4    20    21   ar
     5    21    22   ar
     6    22     1    1
     7     1     2   ar
     8     2     3   ar
     9     3     6    1
    10     6     7   ar
    11     7     8   ar
    12     8     9   ar
    13     9    10   ar
    14    10    11   ar
    15    10    12    1
    16    12    13    1
    17    13    16    1
    18    16    17    1
    19    16    18    1
    20    13    14   am
    21    14    15    2
    22     3     4   ar
    23     4     5   ar
    24    22    23   ar
    25    23    24   ar
    26    24    19   ar
    27     5     1   ar
    28    11     6   ar
    29    14     9    1
@<TRIPOS>MOLECULE
*****
 26 29 0 0 0
SMALL
GASTEIGER

@<TRIPOS>ATOM
      1 C         138.2214  140.7636  160.3245 C.ar    1  UNL1        0.1245
      2 C         138.7755  141.2368  161.6356 C.ar    1  UNL1        0.0626
      3 C         138.4193  140.2232  162.6823 C.ar    1  UNL1        0.1769
      4 O         137.6450  139.1235  162.0181 O.2     1  UNL1       -0.3534
      5 N         137.5227  139.4574  160.5609 N.ar    1  UNL1       -0.0769
      6 C         138.7749  140.2964  164.1378 C.ar    1  UNL1        0.0370
      7 C         138.4488  139.1498  165.0481 C.ar    1  UNL1        0.0032
      8 C         138.8044  139.2230  166.5035 C.ar    1  UNL1        0.0044
      9 C         139.4861  140.4429  167.0485 C.ar    1  UNL1        0.0512
     10 C         139.8123  141.5896  166.1382 C.ar    1  UNL1        0.0022
     11 C         139.4566  141.5163  164.6828 C.ar    1  UNL1        0.0007
     12 C         140.4826  142.6540  166.9553 C.3     1  UNL1        0.1205
     13 N         140.5708  142.1651  168.3707 N.am    1  UNL1       -0.2736
     14 C         139.9550  140.7986  168.4283 C.2     1  UNL1        0.2490
     15 O         139.8299  139.9387  169.6510 O.2     1  UNL1       -0.2699
     16 C         141.1698  142.9118  169.5256 C.3     1  UNL1        0.0761
     17 C         140.4659  144.1101  170.0900 C.3     1  UNL1        0.0215
     18 C         142.4725  142.4600  170.1162 C.3     1  UNL1        0.0215
     19 C         138.5903  142.8890  156.3753 C.ar    1  UNL1        0.2250
     20 C         139.2446  143.4600  157.5983 C.ar    1  UNL1        0.0578
     21 C         139.1216  142.7516  158.9147 C.ar    1  UNL1        0.0079
     22 C         138.3444  141.4721  159.0081 C.ar    1  UNL1        0.0403
     23 C         137.6901  140.9011  157.7850 C.ar    1  UNL1        0.1036
     24 N         137.8130  141.6094  156.4687 N.ar    1  UNL1       -0.2101
     25 C         139.1966  145.0167  155.0133 C.3     1  UNL1        0.2542
     26 O         138.7133  143.5975  155.0589 O.3     1  UNL1       -0.4561
@<TRIPOS>BOND
     1    25    26    1
     2    26    19    1
     3    19    20   ar
     4    20    21   ar
     5    21    22   ar
     6    22     1    1
     7     1     2   ar
     8     2     3   ar
     9     3     6    1
    10     6     7   ar
    11     7     8   ar
    12     8     9   ar
    13     9    10   ar
    14    10    11   ar
    15    10    12    1
    16    12    13    1
    17    13    16    1
    18    16    17    1
    19    16    18    1
    20    13    14   am
    21    14    15    2
    22     3     4   ar
    23     4     5   ar
    24    22    23   ar
    25    23    24   ar
    26    24    19   ar
    27     5     1   ar
    28    11     6   ar
    29    14     9    1
@<TRIPOS>MOLECULE
*****
 26 29 0 0 0
SMALL
GASTEIGER

@<TRIPOS>ATOM
      1 C         142.4820  138.5911  159.8807 C.ar    1  UNL1        0.1245
      2 C         141.9223  138.6070  161.2722 C.ar    1  UNL1        0.0626
      3 C         142.9710  139.1663  162.1873 C.ar    1  UNL1        0.1769
      4 O         144.1789  139.4960  161.3612 O.2     1  UNL1       -0.3534
      5 N         143.8767  139.1405  159.9357 N.ar    1  UNL1       -0.0769
      6 C         142.8357  139.3617  163.6684 C.ar    1  UNL1        0.0370
      7 C         143.8272  138.7325  164.6016 C.ar    1  UNL1        0.0032
      8 C         143.6919  138.9278  166.0826 C.ar    1  UNL1        0.0044
      9 C         142.5649  139.7523  166.6304 C.ar    1  UNL1        0.0512
     10 C         141.5733  140.3815  165.6972 C.ar    1  UNL1        0.0022
     11 C         141.7087  140.1861  164.2162 C.ar    1  UNL1        0.0007
     12 C         140.5737  141.1359  166.5229 C.3     1  UNL1        0.1205
     13 N         140.9476  140.9729  167.9665 N.am    1  UNL1       -0.2736
     14 C         142.1782  140.1179  168.0329 C.2     1  UNL1        0.2490
     15 O         142.8960  139.7014  169.2824 O.2     1  UNL1       -0.2699
     16 C         140.2187  141.5618  169.1379 C.3     1  UNL1        0.0761
     17 C         139.2588  140.7193  169.9245 C.3     1  UNL1        0.0215
     18 C         140.4499  142.9930  169.5226 C.3     1  UNL1        0.0215
     19 C         140.3513  137.1482  156.1891 C.ar    1  UNL1        0.2250
     20 C         141.8008  136.8214  156.3943 C.ar    1  UNL1        0.0578
     21 C         142.5110  137.3024  157.6249 C.ar    1  UNL1        0.0079
     22 C         141.7718  138.1101  158.6501 C.ar    1  UNL1        0.0403
     23 C         140.3223  138.4369  158.4448 C.ar    1  UNL1        0.1036
     24 N         139.6120  137.9560  157.2143 N.ar    1  UNL1       -0.2101
     25 C         138.4198  137.3868  154.4680 C.3     1  UNL1        0.2542
     26 O         139.6411  136.6673  154.9585 O.3     1  UNL1       -0.4561
@<TRIPOS>BOND
     1    25    26    1
     2    26    19    1
     3    19    20   ar
     4    20    21   ar
     5    21    22   ar
     6    22     1    1
     7     1     2   ar
     8     2     3   ar
     9     3     6    1
    10     6     7   ar
    11     7     8   ar
    12     8     9   ar
    13     9    10   ar
    14    10    11   ar
    15    10    12    1
    16    12    13    1
    17    13    16    1
    18    16    17    1
    19    16    18    1
    20    13    14   am
    21    14    15    2
    22     3     4   ar
    23     4     5   ar
    24    22    23   ar
    25    23    24   ar
    26    24    19   ar
    27     5     1   ar
    28    11     6   ar
    29    14     9    1
@<TRIPOS>MOLECULE
*****
 26 29 0 0 0
SMALL
GASTEIGER

@<TRIPOS>ATOM
      1 C         142.3285  143.7820  159.7784 C.ar    1  UNL1        0.1245
      2 C         141.9417  143.7515  161.2273 C.ar    1  UNL1        0.0626
      3 C         143.0917  143.1793  162.0021 C.ar    1  UNL1        0.1769
      4 O         144.1892  142.8562  161.0319 O.2     1  UNL1       -0.3534
      5 N         143.7175  143.2287  159.6576 N.ar    1  UNL1       -0.0769
      6 C         143.1364  142.9674  163.4864 C.ar    1  UNL1        0.0370
      7 C         144.1805  143.6593  164.3117 C.ar    1  UNL1        0.0032
      8 C         144.2252  143.4474  165.7959 C.ar    1  UNL1        0.0044
      9 C         143.2257  142.5436  166.4549 C.ar    1  UNL1        0.0512
     10 C         142.1816  141.8518  165.6297 C.ar    1  UNL1        0.0022
     11 C         142.1369  142.0637  164.1454 C.ar    1  UNL1        0.0007
     12 C         141.3347  141.0254  166.5515 C.3     1  UNL1        0.1205
     13 N         141.8554  141.2065  167.9466 N.am    1  UNL1       -0.2736
     14 C         143.0241  142.1449  167.8869 C.2     1  UNL1        0.2490
     15 O         143.8468  142.6038  169.0541 O.2     1  UNL1       -0.2699
     16 C         141.3041  140.5624  169.1840 C.3     1  UNL1        0.0761
     17 C         140.0113  141.0476  169.7698 C.3     1  UNL1        0.0215
     18 C         142.0457  139.4330  169.8356 C.3     1  UNL1        0.0215
     19 C         139.7708  145.2719  156.3889 C.ar    1  UNL1        0.2250
     20 C         141.0126  146.0189  156.7759 C.ar    1  UNL1        0.0578
     21 C         141.8652  145.5222  157.9057 C.ar    1  UNL1        0.0079
     22 C         141.4759  144.2786  158.6486 C.ar    1  UNL1        0.0403
     23 C         140.2340  143.5316  158.2616 C.ar    1  UNL1        0.1036
     24 N         139.3815  144.0282  157.1318 N.ar    1  UNL1       -0.2101
     25 C         137.6220  145.0842  154.9408 C.3     1  UNL1        0.2542
     26 O         138.9183  145.7685  155.2591 O.3     1  UNL1       -0.4561
@<TRIPOS>BOND
     1    25    26    1
     2    26    19    1
     3    19    20   ar
     4    20    21   ar
     5    21    22   ar
     6    22     1    1
     7     1     2   ar
     8     2     3   ar
     9     3     6    1
    10     6     7   ar
    11     7     8   ar
    12     8     9   ar
    13     9    10   ar
    14    10    11   ar
    15    10    12    1
    16    12    13    1
    17    13    16    1
    18    16    17    1
    19    16    18    1
    20    13    14   am
    21    14    15    2
    22     3     4   ar
    23     4     5   ar
    24    22    23   ar
    25    23    24   ar
    26    24    19   ar
    27     5     1   ar
    28    11     6   ar
    29    14     9    1
@<TRIPOS>MOLECULE
*****
 26 29 0 0 0
SMALL
GASTEIGER

@<TRIPOS>ATOM
      1 C         138.8457  142.7326  159.4175 C.ar    1  UNL1        0.1245
      2 C         138.9258  142.2319  160.8292 C.ar    1  UNL1        0.0626
      3 C         139.4602  143.3418  161.6851 C.ar    1  UNL1        0.1769
      4 O         139.7103  144.5285  160.8023 O.2     1  UNL1       -0.3534
      5 N         139.3305  144.1520  159.4009 N.ar    1  UNL1       -0.0769
      6 C         139.7020  143.2765  163.1641 C.ar    1  UNL1        0.0370
      7 C         138.9032  144.1413  164.0935 C.ar    1  UNL1        0.0032
      8 C         139.1450  144.0760  165.5724 C.ar    1  UNL1        0.0044
      9 C         140.1856  143.1459  166.1219 C.ar    1  UNL1        0.0512
     10 C         140.9844  142.2810  165.1924 C.ar    1  UNL1        0.0022
     11 C         140.7426  142.3463  163.7135 C.ar    1  UNL1        0.0007
     12 C         141.9354  141.4672  166.0190 C.3     1  UNL1        0.1205
     13 N         141.7244  141.8291  167.4594 N.am    1  UNL1       -0.2736
     14 C         140.6429  142.8665  167.5230 C.2     1  UNL1        0.2490
     15 O         140.1120  143.5115  168.7688 O.2     1  UNL1       -0.2699
     16 C         142.4648  141.2543  168.6305 C.3     1  UNL1        0.0761
     17 C         143.3918  142.1208  169.4303 C.3     1  UNL1        0.0215
     18 C         142.2782  139.8130  169.0017 C.3     1  UNL1        0.0215
     19 C         137.4039  140.3882  155.8573 C.ar    1  UNL1        0.2250
     20 C         137.0148  141.8283  156.0145 C.ar    1  UNL1        0.0578
     21 C         137.4954  142.6097  157.2013 C.ar    1  UNL1        0.0079
     22 C         138.3651  141.9511  158.2308 C.ar    1  UNL1        0.0403
     23 C         138.7542  140.5110  158.0735 C.ar    1  UNL1        0.1036
     24 N         138.2736  139.7295  156.8869 N.ar    1  UNL1       -0.2101
     25 C         135.5064  139.7526  154.2004 C.3     1  UNL1        0.2542
     26 O         136.9233  139.6068  154.6706 O.3     1  UNL1       -0.4561
@<TRIPOS>BOND
     1    25    26    1
     2    26    19    1
     3    19    20   ar
     4    20    21   ar
     5    21    22   ar
     6    22     1    1
     7     1     2   ar
     8     2     3   ar
     9     3     6    1
    10     6     7   ar
    11     7     8   ar
    12     8     9   ar
    13     9    10   ar
    14    10    11   ar
    15    10    12    1
    16    12    13    1
    17    13    16    1
    18    16    17    1
    19    16    18    1
    20    13    14   am
    21    14    15    2
    22     3     4   ar
    23     4     5   ar
    24    22    23   ar
    25    23    24   ar
    26    24    19   ar
    27     5     1   ar
    28    11     6   ar
    29    14     9    1
@<TRIPOS>MOLECULE
*****
 26 29 0 0 0
SMALL
GASTEIGER

@<TRIPOS>ATOM
      1 C         142.9691  136.9105  157.2094 C.ar    1  UNL1        0.1245
      2 C         142.5361  137.5689  158.4857 C.ar    1  UNL1        0.0626
      3 C         143.0329  138.9841  158.4690 C.ar    1  UNL1        0.1769
      4 O         143.7731  139.2003  157.1824 O.2     1  UNL1       -0.3534
      5 N         143.7337  137.9188  156.4039 N.ar    1  UNL1       -0.0769
      6 C         142.8260  140.0041  159.5493 C.ar    1  UNL1        0.0370
      7 C         143.7701  140.0659  160.7132 C.ar    1  UNL1        0.0032
      8 C         143.5632  141.0858  161.7934 C.ar    1  UNL1        0.0044
      9 C         142.4120  142.0439  161.7097 C.ar    1  UNL1        0.0512
     10 C         141.4679  141.9821  160.5458 C.ar    1  UNL1        0.0022
     11 C         141.6749  140.9621  159.4656 C.ar    1  UNL1        0.0007
     12 C         140.4304  143.0490  160.7333 C.3     1  UNL1        0.1205
     13 N         140.7334  143.7704  162.0131 N.am    1  UNL1       -0.2736
     14 C         141.9581  143.1492  162.6166 C.2     1  UNL1        0.2490
     15 O         142.6138  143.5609  163.9013 O.2     1  UNL1       -0.2699
     16 C         139.9492  144.9124  162.5885 C.3     1  UNL1        0.0761
     17 C         139.8583  146.2107  161.8428 C.3     1  UNL1        0.0215
     18 C         139.2561  144.7560  163.9095 C.3     1  UNL1        0.0215
     19 C         142.1232  132.6572  156.0079 C.ar    1  UNL1        0.2250
     20 C         141.4954  133.7894  155.2505 C.ar    1  UNL1        0.0578
     21 C         141.7773  135.2072  155.6510 C.ar    1  UNL1        0.0079
     22 C         142.6872  135.4927  156.8089 C.ar    1  UNL1        0.0403
     23 C         143.3150  134.3604  157.5662 C.ar    1  UNL1        0.1036
     24 N         143.0331  132.9427  157.1658 N.ar    1  UNL1       -0.2101
     25 C         142.7057  130.1279  156.1245 C.3     1  UNL1        0.2542
     26 O         141.8413  131.2394  155.6074 O.3     1  UNL1       -0.4561
@<TRIPOS>BOND
     1    25    26    1
     2    26    19    1
     3    19    20   ar
     4    20    21   ar
     5    21    22   ar
     6    22     1    1
     7     1     2   ar
     8     2     3   ar
     9     3     6    1
    10     6     7   ar
    11     7     8   ar
    12     8     9   ar
    13     9    10   ar
    14    10    11   ar
    15    10    12    1
    16    12    13    1
    17    13    16    1
    18    16    17    1
    19    16    18    1
    20    13    14   am
    21    14    15    2
    22     3     4   ar
    23     4     5   ar
    24    22    23   ar
    25    23    24   ar
    26    24    19   ar
    27     5     1   ar
    28    11     6   ar
    29    14     9    1
@<TRIPOS>MOLECULE
*****
 26 29 0 0 0
SMALL
GASTEIGER

@<TRIPOS>ATOM
      1 C         143.0671  136.5183  156.6021 C.ar    1  UNL1        0.1245
      2 C         142.5158  137.3779  157.7008 C.ar    1  UNL1        0.0626
      3 C         143.2020  138.7101  157.6357 C.ar    1  UNL1        0.1769
      4 O         144.1775  138.6739  156.4968 O.2     1  UNL1       -0.3534
      5 N         144.0941  137.3193  155.8579 N.ar    1  UNL1       -0.0769
      6 C         142.9560  139.8742  158.5492 C.ar    1  UNL1        0.0370
      7 C         141.8661  140.8560  158.2362 C.ar    1  UNL1        0.0032
      8 C         141.6202  142.0201  159.1496 C.ar    1  UNL1        0.0044
      9 C         142.4642  142.2023  160.3762 C.ar    1  UNL1        0.0512
     10 C         143.5541  141.2205  160.6893 C.ar    1  UNL1        0.0022
     11 C         143.8000  140.0565  159.7758 C.ar    1  UNL1        0.0007
     12 C         144.2193  141.6563  161.9611 C.3     1  UNL1        0.1205
     13 N         143.5404  142.9075  162.4341 N.am    1  UNL1       -0.2736
     14 C         142.4557  143.2450  161.4546 C.2     1  UNL1        0.2490
     15 O         141.5258  144.4190  161.5386 O.2     1  UNL1       -0.2699
     16 C         143.8857  143.6848  163.6697 C.3     1  UNL1        0.0761
     17 C         144.4454  142.9779  164.8685 C.3     1  UNL1        0.0215
     18 C         143.6714  145.1690  163.7065 C.3     1  UNL1        0.0215
     19 C         141.8532  132.2807  155.6972 C.ar    1  UNL1        0.2250
     20 C         141.4141  133.3955  154.7949 C.ar    1  UNL1        0.0578
     21 C         141.8188  134.8081  155.0965 C.ar    1  UNL1        0.0079
     22 C         142.6624  135.1058  156.3005 C.ar    1  UNL1        0.0403
     23 C         143.1015  133.9909  157.2028 C.ar    1  UNL1        0.1036
     24 N         142.6969  132.5784  156.9013 N.ar    1  UNL1       -0.2101
     25 C         140.1326  130.5905  154.7314 C.3     1  UNL1        0.2542
     26 O         141.4486  130.8682  155.3956 O.3     1  UNL1       -0.4561
@<TRIPOS>BOND
     1    25    26    1
     2    26    19    1
     3    19    20   ar
     4    20    21   ar
     5    21    22   ar
     6    22     1    1
     7     1     2   ar
     8     2     3   ar
     9     3     6    1
    10     6     7   ar
    11     7     8   ar
    12     8     9   ar
    13     9    10   ar
    14    10    11   ar
    15    10    12    1
    16    12    13    1
    17    13    16    1
    18    16    17    1
    19    16    18    1
    20    13    14   am
    21    14    15    2
    22     3     4   ar
    23     4     5   ar
    24    22    23   ar
    25    23    24   ar
    26    24    19   ar
    27     5     1   ar
    28    11     6   ar
    29    14     9    1
