@<TRIPOS>MOLECULE
*****
 42 46 0 0 0
SMALL
GASTEIGER

@<TRIPOS>ATOM
      1 C         140.2797  138.5996  159.0736 C.ar    1  UNL1        0.1539
      2 N         141.6691  138.3792  158.5532 N.ar    1  UNL1       -0.1328
      3 N         142.7623  137.9568  159.4894 N.ar    1  UNL1       -0.1452
      4 C         142.4661  137.7547  160.9459 C.ar    1  UNL1        0.1223
      5 C         141.0767  137.9751  161.4663 C.ar    1  UNL1        0.0267
      6 C         140.7805  137.7731  162.9228 C.ar    1  UNL1        0.0386
      7 C         139.3910  137.9935  163.4432 C.ar    1  UNL1        0.1386
      8 C         138.2977  138.4160  162.5070 C.ar    1  UNL1        0.0370
      9 C         138.5939  138.6180  161.0505 C.ar    1  UNL1        0.0060
     10 C         139.9835  138.3976  160.5301 C.ar    1  UNL1        0.0352
     11 N         139.1864  139.0221  158.1375 N.pl3   1  UNL1       -0.2941
     12 H         138.6302  138.3429  157.6918 H       1  UNL1        0.1537
     13 N         139.1998  142.8922  157.8414 N.ar    1  UNL1       -0.2387
     14 C         139.8275  141.6116  158.3063 C.ar    1  UNL1        0.1118
     15 C         138.9406  140.4793  157.8804 C.ar    1  UNL1        0.0896
     16 C         137.7648  141.0601  157.1523 C.ar    1  UNL1        0.1363
     17 N         137.9250  142.5514  157.1282 N.ar    1  UNL1       -0.1658
     18 C         139.7503  144.2714  158.0526 C.3     1  UNL1        0.2122
     19 O         142.0159  145.2758  158.8324 O.2     1  UNL1       -0.2726
     20 C         140.7569  144.5193  159.1367 C.2     1  UNL1        0.2510
     21 N         140.5045  144.0106  160.5251 N.am    1  UNL1       -0.2805
     22 H         139.6782  143.5141  160.7248 H       1  UNL1        0.1550
     23 C         141.5111  144.2585  161.6092 C.ar    1  UNL1        0.0804
     24 C         141.1923  145.2079  162.7258 C.ar    1  UNL1        0.0171
     25 C         142.1990  145.4558  163.8099 C.ar    1  UNL1        0.0037
     26 C         143.5244  144.7542  163.7774 C.ar    1  UNL1        0.0321
     27 C         143.8432  143.8047  162.6608 C.ar    1  UNL1        0.1686
     28 F         145.1685  143.1031  162.6282 F       1  UNL1       -0.2018
     29 C         142.8366  143.5568  161.5766 C.ar    1  UNL1        0.1807
     30 F         143.1553  142.6074  160.4600 F       1  UNL1       -0.2005
     31 O         139.0948  137.7915  164.8997 O.3     1  UNL1       -0.4754
     32 C         138.4506  138.8893  165.6933 C.3     1  UNL1        0.2068
     33 C         139.2525  140.0893  166.1019 C.3     1  UNL1        0.0646
     34 C         139.7733  141.0336  165.0593 C.3     1  UNL1        0.0760
     35 N         139.2500  142.4377  164.9906 N.3     1  UNL1       -0.2716
     36 C         139.5984  143.5554  165.9285 C.3     1  UNL1        0.0722
     37 C         138.8501  144.7791  165.4895 C.3     1  UNL1        0.0188
     38 C         138.0393  144.4177  164.2803 C.3     1  UNL1        0.0199
     39 C         138.2865  142.9707  163.9720 C.3     1  UNL1        0.0870
     40 C         137.6771  142.1932  162.8433 C.3     1  UNL1        0.1530
     41 O         136.5050  141.2929  163.0994 O.3     1  UNL1       -0.3806
     42 H         136.7796  140.5596  163.6719 H       1  UNL1        0.2105
@<TRIPOS>BOND
     1    19    20    2
     2    20    18    1
     3    18    13    1
     4    13    14   ar
     5    14    15   ar
     6    15    11    1
     7    11     1    1
     8     1     2   ar
     9     2     3   ar
    10     3     4   ar
    11     4     5   ar
    12     5     6   ar
    13     6     7   ar
    14     7    31    1
    15    31    32    1
    16    32    33    1
    17    33    34    1
    18    34    35    1
    19    35    36    1
    20    36    37    1
    21    37    38    1
    22    38    39    1
    23    39    40    1
    24    40    41    1
    25     7     8   ar
    26     8     9   ar
    27     9    10   ar
    28    15    16   ar
    29    16    17   ar
    30    20    21   am
    31    21    23    1
    32    23    24   ar
    33    24    25   ar
    34    25    26   ar
    35    26    27   ar
    36    27    28    1
    37    27    29   ar
    38    29    30    1
    39    17    13   ar
    40    29    23   ar
    41    10     1   ar
    42    10     5   ar
    43    39    35    1
    44    11    12    1
    45    41    42    1
    46    21    22    1
@<TRIPOS>MOLECULE
*****
 42 46 0 0 0
SMALL
GASTEIGER

@<TRIPOS>ATOM
      1 C         141.0123  139.1624  160.1933 C.ar    1  UNL1        0.1539
      2 N         139.9408  138.4257  159.4455 N.ar    1  UNL1       -0.1328
      3 N         138.8490  139.1877  158.7548 N.ar    1  UNL1       -0.1452
      4 C         138.8286  140.6865  158.8118 C.ar    1  UNL1        0.1223
      5 C         139.9001  141.4232  159.5596 C.ar    1  UNL1        0.0267
      6 C         139.8797  142.9220  159.6167 C.ar    1  UNL1        0.0386
      7 C         140.9511  143.6587  160.3644 C.ar    1  UNL1        0.1386
      8 C         142.0430  142.8966  161.0552 C.ar    1  UNL1        0.0370
      9 C         142.0634  141.3979  160.9982 C.ar    1  UNL1        0.0060
     10 C         140.9919  140.6611  160.2503 C.ar    1  UNL1        0.0352
     11 N         142.1042  138.4003  160.8840 N.pl3   1  UNL1       -0.2941
     12 H         142.8580  138.0397  160.3636 H       1  UNL1        0.1537
     13 N         142.6354  138.1792  164.7226 N.ar    1  UNL1       -0.2387
     14 C         143.1066  138.5782  163.3556 C.ar    1  UNL1        0.1118
     15 C         142.0475  138.1878  162.3678 C.ar    1  UNL1        0.0896
     16 C         140.9216  137.5474  163.1244 C.ar    1  UNL1        0.1363
     17 N         141.2849  137.5421  164.5797 N.ar    1  UNL1       -0.1658
     18 C         143.3833  138.3817  166.0070 C.3     1  UNL1        0.2122
     19 O         143.2150  138.8615  168.5547 O.2     1  UNL1       -0.2726
     20 C         142.7246  139.0870  167.1552 C.2     1  UNL1        0.2510
     21 N         141.5755  140.0178  166.9040 N.am    1  UNL1       -0.2805
     22 H         141.2537  140.1658  165.9855 H       1  UNL1        0.1550
     23 C         140.9168  140.7232  168.0523 C.ar    1  UNL1        0.0804
     24 C         139.8188  140.0463  168.8180 C.ar    1  UNL1        0.0171
     25 C         139.1601  140.7516  169.9663 C.ar    1  UNL1        0.0037
     26 C         139.5993  142.1339  170.3489 C.ar    1  UNL1        0.0321
     27 C         140.6974  142.8108  169.5833 C.ar    1  UNL1        0.1686
     28 F         141.1367  144.1930  169.9659 F       1  UNL1       -0.2018
     29 C         141.3561  142.1055  168.4350 C.ar    1  UNL1        0.1807
     30 F         142.4541  142.7824  167.6693 F       1  UNL1       -0.2005
     31 O         140.9307  145.1575  160.4215 O.3     1  UNL1       -0.4754
     32 C         139.9750  145.8601  161.3395 C.3     1  UNL1        0.2068
     33 C         139.9967  145.5686  162.8107 C.3     1  UNL1        0.0646
     34 C         138.8649  144.8137  163.4425 C.3     1  UNL1        0.0760
     35 N         138.7868  143.3224  163.3014 N.3     1  UNL1       -0.2716
     36 C         137.7251  142.5609  162.5645 C.3     1  UNL1        0.0722
     37 C         138.0388  141.0986  162.6801 C.3     1  UNL1        0.0188
     38 C         139.2943  140.9563  163.4885 C.3     1  UNL1        0.0199
     39 C         139.7567  142.3307  163.8725 C.3     1  UNL1        0.0870
     40 C         140.9748  142.6563  164.6848 C.3     1  UNL1        0.1530
     41 O         142.1756  141.7591  164.6287 O.3     1  UNL1       -0.3806
     42 H         141.9522  140.8957  165.0101 H       1  UNL1        0.2105
@<TRIPOS>BOND
     1    19    20    2
     2    20    18    1
     3    18    13    1
     4    13    14   ar
     5    14    15   ar
     6    15    11    1
     7    11     1    1
     8     1     2   ar
     9     2     3   ar
    10     3     4   ar
    11     4     5   ar
    12     5     6   ar
    13     6     7   ar
    14     7    31    1
    15    31    32    1
    16    32    33    1
    17    33    34    1
    18    34    35    1
    19    35    36    1
    20    36    37    1
    21    37    38    1
    22    38    39    1
    23    39    40    1
    24    40    41    1
    25     7     8   ar
    26     8     9   ar
    27     9    10   ar
    28    15    16   ar
    29    16    17   ar
    30    20    21   am
    31    21    23    1
    32    23    24   ar
    33    24    25   ar
    34    25    26   ar
    35    26    27   ar
    36    27    28    1
    37    27    29   ar
    38    29    30    1
    39    17    13   ar
    40    29    23   ar
    41    10     1   ar
    42    10     5   ar
    43    39    35    1
    44    11    12    1
    45    41    42    1
    46    21    22    1
@<TRIPOS>MOLECULE
*****
 42 46 0 0 0
SMALL
GASTEIGER

@<TRIPOS>ATOM
      1 C         142.3290  139.0774  160.1248 C.ar    1  UNL1        0.1539
      2 N         143.5947  138.9461  159.3307 N.ar    1  UNL1       -0.1328
      3 N         144.1589  140.1382  158.6162 N.ar    1  UNL1       -0.1452
      4 C         143.4574  141.4616  158.6959 C.ar    1  UNL1        0.1223
      5 C         142.1917  141.5930  159.4900 C.ar    1  UNL1        0.0267
      6 C         141.4901  142.9164  159.5697 C.ar    1  UNL1        0.0386
      7 C         140.2244  143.0477  160.3638 C.ar    1  UNL1        0.1386
      8 C         139.6601  141.8555  161.0782 C.ar    1  UNL1        0.0370
      9 C         140.3617  140.5321  160.9986 C.ar    1  UNL1        0.0060
     10 C         141.6275  140.4008  160.2044 C.ar    1  UNL1        0.0352
     11 N         141.7648  137.8852  160.8393 N.pl3   1  UNL1       -0.2941
     12 H         141.3896  137.1347  160.3242 H       1  UNL1        0.1537
     13 N         142.4751  138.0517  164.6515 N.ar    1  UNL1       -0.2387
     14 C         142.8955  138.2772  163.2294 C.ar    1  UNL1        0.1118
     15 C         141.7721  137.8366  162.3384 C.ar    1  UNL1        0.0896
     16 C         140.6574  137.3387  163.2100 C.ar    1  UNL1        0.1363
     17 N         141.0919  137.4716  164.6395 N.ar    1  UNL1       -0.1658
     18 C         143.2942  138.3533  165.8714 C.3     1  UNL1        0.2122
     19 O         143.2327  138.8826  168.4142 O.2     1  UNL1       -0.2726
     20 C         142.6719  139.0663  167.0351 C.2     1  UNL1        0.2510
     21 N         141.4888  139.9629  166.8198 N.am    1  UNL1       -0.2805
     22 H         141.1208  140.0834  165.9147 H       1  UNL1        0.1550
     23 C         140.8665  140.6759  167.9836 C.ar    1  UNL1        0.0804
     24 C         139.7411  140.0355  168.7408 C.ar    1  UNL1        0.0171
     25 C         139.1188  140.7486  169.9046 C.ar    1  UNL1        0.0037
     26 C         139.6219  142.1019  170.3112 C.ar    1  UNL1        0.0321
     27 C         140.7473  142.7424  169.5539 C.ar    1  UNL1        0.1686
     28 F         141.2504  144.0957  169.9604 F       1  UNL1       -0.2018
     29 C         141.3696  142.0293  168.3901 C.ar    1  UNL1        0.1807
     30 F         142.4950  142.6697  167.6329 F       1  UNL1       -0.2005
     31 O         139.5229  144.3711  160.4434 O.3     1  UNL1       -0.4754
     32 C         139.3678  145.0593  161.7672 C.3     1  UNL1        0.2068
     33 C         140.4682  145.9335  162.2915 C.3     1  UNL1        0.0646
     34 C         141.3451  145.4474  163.4071 C.3     1  UNL1        0.0760
     35 N         142.1895  144.2221  163.2180 N.3     1  UNL1       -0.2716
     36 C         143.4779  144.1486  162.4535 C.3     1  UNL1        0.0722
     37 C         143.9783  142.7362  162.5232 C.3     1  UNL1        0.0188
     38 C         142.9992  141.9369  163.3309 C.3     1  UNL1        0.0199
     39 C         141.8936  142.8552  163.7604 C.3     1  UNL1        0.0870
     40 C         140.7015  142.4736  164.5869 C.3     1  UNL1        0.1530
     41 O         140.1351  141.0880  164.4915 O.3     1  UNL1       -0.3806
     42 H         139.7685  140.9489  163.6042 H       1  UNL1        0.2105
@<TRIPOS>BOND
     1    19    20    2
     2    20    18    1
     3    18    13    1
     4    13    14   ar
     5    14    15   ar
     6    15    11    1
     7    11     1    1
     8     1     2   ar
     9     2     3   ar
    10     3     4   ar
    11     4     5   ar
    12     5     6   ar
    13     6     7   ar
    14     7    31    1
    15    31    32    1
    16    32    33    1
    17    33    34    1
    18    34    35    1
    19    35    36    1
    20    36    37    1
    21    37    38    1
    22    38    39    1
    23    39    40    1
    24    40    41    1
    25     7     8   ar
    26     8     9   ar
    27     9    10   ar
    28    15    16   ar
    29    16    17   ar
    30    20    21   am
    31    21    23    1
    32    23    24   ar
    33    24    25   ar
    34    25    26   ar
    35    26    27   ar
    36    27    28    1
    37    27    29   ar
    38    29    30    1
    39    17    13   ar
    40    29    23   ar
    41    10     1   ar
    42    10     5   ar
    43    39    35    1
    44    11    12    1
    45    41    42    1
    46    21    22    1
@<TRIPOS>MOLECULE
*****
 42 46 0 0 0
SMALL
GASTEIGER

@<TRIPOS>ATOM
      1 C         143.5266  139.4029  162.9317 C.ar    1  UNL1        0.1539
      2 N         144.6924  139.2822  163.8678 N.ar    1  UNL1       -0.1328
      3 N         145.6250  140.4416  164.0576 N.ar    1  UNL1       -0.1452
      4 C         145.3918  141.7217  163.3113 C.ar    1  UNL1        0.1223
      5 C         144.2260  141.8424  162.3752 C.ar    1  UNL1        0.0267
      6 C         143.9928  143.1225  161.6289 C.ar    1  UNL1        0.0386
      7 C         142.8271  143.2432  160.6928 C.ar    1  UNL1        0.1386
      8 C         141.8944  142.0838  160.5029 C.ar    1  UNL1        0.0370
      9 C         142.1276  140.8037  161.2492 C.ar    1  UNL1        0.0060
     10 C         143.2934  140.6830  162.1854 C.ar    1  UNL1        0.0352
     11 N         142.5940  138.2435  162.7418 N.pl3   1  UNL1       -0.2941
     12 H         142.8664  137.4787  162.1851 H       1  UNL1        0.1537
     13 N         139.4640  138.6119  165.0075 N.ar    1  UNL1       -0.2387
     14 C         140.9261  138.8245  164.7483 C.ar    1  UNL1        0.1118
     15 C         141.2462  138.2495  163.4003 C.ar    1  UNL1        0.0896
     16 C         139.9820  137.6815  162.8266 C.ar    1  UNL1        0.1363
     17 N         138.8806  137.9055  163.8199 N.ar    1  UNL1       -0.1658
     18 C         138.7167  139.0320  166.2384 C.3     1  UNL1        0.2122
     19 O         138.9602  139.5845  168.7653 O.2     1  UNL1       -0.2726
     20 C         139.4380  139.7328  167.3512 C.2     1  UNL1        0.2510
     21 N         140.6372  140.5821  167.0499 N.am    1  UNL1       -0.2805
     22 H         140.9507  140.6795  166.1217 H       1  UNL1        0.1550
     23 C         141.3585  141.2830  168.1627 C.ar    1  UNL1        0.0804
     24 C         142.5592  140.6456  168.7968 C.ar    1  UNL1        0.0171
     25 C         143.2806  141.3465  169.9096 C.ar    1  UNL1        0.0037
     26 C         142.8013  142.6848  170.3883 C.ar    1  UNL1        0.0321
     27 C         141.6006  143.3223  169.7542 C.ar    1  UNL1        0.1686
     28 F         141.1213  144.6606  170.2329 F       1  UNL1       -0.2018
     29 C         140.8792  142.6214  168.6414 C.ar    1  UNL1        0.1807
     30 F         139.6785  143.2588  168.0073 F       1  UNL1       -0.2005
     31 O         142.5939  144.5233  159.9464 O.3     1  UNL1       -0.4754
     32 C         141.2350  144.8306  159.3907 C.3     1  UNL1        0.2068
     33 C         140.0703  145.0171  160.3175 C.3     1  UNL1        0.0646
     34 C         140.2707  145.6738  161.6511 C.3     1  UNL1        0.0760
     35 N         140.3400  144.8389  162.8953 N.3     1  UNL1       -0.2716
     36 C         141.5711  144.5695  163.7089 C.3     1  UNL1        0.0722
     37 C         141.1824  143.6910  164.8609 C.3     1  UNL1        0.0188
     38 C         139.7111  143.4173  164.7593 C.3     1  UNL1        0.0199
     39 C         139.1904  144.1268  163.5445 C.3     1  UNL1        0.0870
     40 C         137.7697  144.1246  163.0634 C.3     1  UNL1        0.1530
     41 O         137.3991  143.3674  161.8227 O.3     1  UNL1       -0.3806
     42 H         137.8298  143.7744  161.0547 H       1  UNL1        0.2105
@<TRIPOS>BOND
     1    19    20    2
     2    20    18    1
     3    18    13    1
     4    13    14   ar
     5    14    15   ar
     6    15    11    1
     7    11     1    1
     8     1     2   ar
     9     2     3   ar
    10     3     4   ar
    11     4     5   ar
    12     5     6   ar
    13     6     7   ar
    14     7    31    1
    15    31    32    1
    16    32    33    1
    17    33    34    1
    18    34    35    1
    19    35    36    1
    20    36    37    1
    21    37    38    1
    22    38    39    1
    23    39    40    1
    24    40    41    1
    25     7     8   ar
    26     8     9   ar
    27     9    10   ar
    28    15    16   ar
    29    16    17   ar
    30    20    21   am
    31    21    23    1
    32    23    24   ar
    33    24    25   ar
    34    25    26   ar
    35    26    27   ar
    36    27    28    1
    37    27    29   ar
    38    29    30    1
    39    17    13   ar
    40    29    23   ar
    41    10     1   ar
    42    10     5   ar
    43    39    35    1
    44    11    12    1
    45    41    42    1
    46    21    22    1
@<TRIPOS>MOLECULE
*****
 42 46 0 0 0
SMALL
GASTEIGER

@<TRIPOS>ATOM
      1 C         141.1669  137.9861  163.0716 C.ar    1  UNL1        0.1539
      2 N         139.8120  138.1420  162.4471 N.ar    1  UNL1       -0.1328
      3 N         138.7073  138.8114  163.2095 N.ar    1  UNL1       -0.1452
      4 C         138.9574  139.3250  164.5965 C.ar    1  UNL1        0.1223
      5 C         140.3122  139.1691  165.2210 C.ar    1  UNL1        0.0267
      6 C         140.5622  139.6827  166.6080 C.ar    1  UNL1        0.0386
      7 C         141.9171  139.5268  167.2326 C.ar    1  UNL1        0.1386
      8 C         143.0219  138.8573  166.4701 C.ar    1  UNL1        0.0370
      9 C         142.7718  138.3438  165.0832 C.ar    1  UNL1        0.0060
     10 C         141.4169  138.4997  164.4586 C.ar    1  UNL1        0.0352
     11 N         142.2717  137.3166  162.3092 N.pl3   1  UNL1       -0.2941
     12 H         142.6822  136.4930  162.6589 H       1  UNL1        0.1537
     13 N         143.0293  138.3454  158.6440 N.ar    1  UNL1       -0.2387
     14 C         142.2896  137.5056  159.6429 C.ar    1  UNL1        0.1118
     15 C         142.7510  137.9021  161.0140 C.ar    1  UNL1        0.0896
     16 C         143.7757  138.9870  160.8625 C.ar    1  UNL1        0.1363
     17 N         143.9477  139.2609  159.3978 N.ar    1  UNL1       -0.1658
     18 C         142.8771  138.2809  157.1532 C.3     1  UNL1        0.2122
     19 O         144.5010  136.8837  155.6833 O.2     1  UNL1       -0.2726
     20 C         143.2010  137.0129  156.4204 C.2     1  UNL1        0.2510
     21 N         142.2249  135.8740  156.4246 N.am    1  UNL1       -0.2805
     22 H         141.3717  135.9587  156.9084 H       1  UNL1        0.1550
     23 C         142.5488  134.6059  155.6918 C.ar    1  UNL1        0.0804
     24 C         141.8288  134.2700  154.4195 C.ar    1  UNL1        0.0171
     25 C         142.1527  133.0019  153.6867 C.ar    1  UNL1        0.0037
     26 C         143.1966  132.0696  154.2261 C.ar    1  UNL1        0.0321
     27 C         143.9167  132.4054  155.4985 C.ar    1  UNL1        0.1686
     28 F         144.9606  131.4733  156.0380 F       1  UNL1       -0.2018
     29 C         143.5928  133.6736  156.2313 C.ar    1  UNL1        0.1807
     30 F         144.3128  134.0094  157.5036 F       1  UNL1       -0.2005
     31 O         142.1671  140.0404  168.6195 O.3     1  UNL1       -0.4754
     32 C         142.9096  141.3282  168.8199 C.3     1  UNL1        0.2068
     33 C         142.7386  142.4526  167.8420 C.3     1  UNL1        0.0646
     34 C         143.6283  142.5410  166.6376 C.3     1  UNL1        0.0760
     35 N         143.0602  142.3182  165.2674 N.3     1  UNL1       -0.2716
     36 C         141.6723  142.6703  164.8204 C.3     1  UNL1        0.0722
     37 C         141.5345  142.2738  163.3803 C.3     1  UNL1        0.0188
     38 C         142.8372  141.6766  162.9373 C.3     1  UNL1        0.0199
     39 C         143.7802  141.7040  164.1035 C.3     1  UNL1        0.0870
     40 C         145.1946  141.2049  164.1056 C.3     1  UNL1        0.1530
     41 O         146.2262  141.8705  163.2437 O.3     1  UNL1       -0.3806
     42 H         146.0061  141.7304  162.3094 H       1  UNL1        0.2105
@<TRIPOS>BOND
     1    19    20    2
     2    20    18    1
     3    18    13    1
     4    13    14   ar
     5    14    15   ar
     6    15    11    1
     7    11     1    1
     8     1     2   ar
     9     2     3   ar
    10     3     4   ar
    11     4     5   ar
    12     5     6   ar
    13     6     7   ar
    14     7    31    1
    15    31    32    1
    16    32    33    1
    17    33    34    1
    18    34    35    1
    19    35    36    1
    20    36    37    1
    21    37    38    1
    22    38    39    1
    23    39    40    1
    24    40    41    1
    25     7     8   ar
    26     8     9   ar
    27     9    10   ar
    28    15    16   ar
    29    16    17   ar
    30    20    21   am
    31    21    23    1
    32    23    24   ar
    33    24    25   ar
    34    25    26   ar
    35    26    27   ar
    36    27    28    1
    37    27    29   ar
    38    29    30    1
    39    17    13   ar
    40    29    23   ar
    41    10     1   ar
    42    10     5   ar
    43    39    35    1
    44    11    12    1
    45    41    42    1
    46    21    22    1
@<TRIPOS>MOLECULE
*****
 42 46 0 0 0
SMALL
GASTEIGER

@<TRIPOS>ATOM
      1 C         143.0719  142.6185  159.5209 C.ar    1  UNL1        0.1539
      2 N         143.3424  143.8388  158.6917 N.ar    1  UNL1       -0.1328
      3 N         142.2301  144.7959  158.3806 N.ar    1  UNL1       -0.1452
      4 C         140.8473  144.5326  158.8987 C.ar    1  UNL1        0.1223
      5 C         140.5767  143.3123  159.7279 C.ar    1  UNL1        0.0267
      6 C         139.1939  143.0490  160.2460 C.ar    1  UNL1        0.0386
      7 C         138.9233  141.8287  161.0752 C.ar    1  UNL1        0.1386
      8 C         140.0357  140.8716  161.3863 C.ar    1  UNL1        0.0370
      9 C         141.4185  141.1349  160.8682 C.ar    1  UNL1        0.0060
     10 C         141.6890  142.3553  160.0390 C.ar    1  UNL1        0.0352
     11 N         144.1842  141.6614  159.8320 N.pl3   1  UNL1       -0.2941
     12 H         144.6527  141.1969  159.1013 H       1  UNL1        0.1537
     13 N         144.8614  140.3574  163.4246 N.ar    1  UNL1       -0.2387
     14 C         144.2759  140.1799  162.0550 C.ar    1  UNL1        0.1118
     15 C         144.5826  141.4121  161.2565 C.ar    1  UNL1        0.0896
     16 C         145.3577  142.3511  162.1325 C.ar    1  UNL1        0.1363
     17 N         145.5300  141.6994  163.4725 N.ar    1  UNL1       -0.1658
     18 C         144.7908  139.3669  164.5488 C.3     1  UNL1        0.2122
     19 O         143.3898  138.0185  166.2718 O.2     1  UNL1       -0.2726
     20 C         143.4745  139.0670  165.2025 C.2     1  UNL1        0.2510
     21 N         142.2429  139.8156  164.7869 N.am    1  UNL1       -0.2805
     22 H         142.2985  140.5037  164.0850 H       1  UNL1        0.1550
     23 C         140.9266  139.5156  165.4406 C.ar    1  UNL1        0.0804
     24 C         139.8885  138.7199  164.7062 C.ar    1  UNL1        0.0171
     25 C         138.5722  138.4200  165.3599 C.ar    1  UNL1        0.0037
     26 C         138.2939  138.9157  166.7480 C.ar    1  UNL1        0.0321
     27 C         139.3320  139.7115  167.4824 C.ar    1  UNL1        0.1686
     28 F         139.0538  140.2072  168.8705 F       1  UNL1       -0.2018
     29 C         140.6483  140.0114  166.8287 C.ar    1  UNL1        0.1807
     30 F         141.6864  140.8071  167.5631 F       1  UNL1       -0.2005
     31 O         137.5405  141.5655  161.5933 O.3     1  UNL1       -0.4754
     32 C         137.3297  141.2596  163.0465 C.3     1  UNL1        0.2068
     33 C         137.5633  142.3229  164.0784 C.3     1  UNL1        0.0646
     34 C         138.9631  142.7242  164.4382 C.3     1  UNL1        0.0760
     35 N         139.6319  143.8502  163.7069 N.3     1  UNL1       -0.2716
     36 C         138.9440  145.0277  163.0822 C.3     1  UNL1        0.0722
     37 C         139.9930  145.9017  162.4612 C.3     1  UNL1        0.0188
     38 C         141.3294  145.2644  162.7021 C.3     1  UNL1        0.0199
     39 C         141.1063  143.9965  163.4721 C.3     1  UNL1        0.0870
     40 C         142.1705  143.0425  163.9272 C.3     1  UNL1        0.1530
     41 O         142.4291  142.8506  165.3922 O.3     1  UNL1       -0.3806
     42 H         142.7768  143.6737  165.7697 H       1  UNL1        0.2105
@<TRIPOS>BOND
     1    19    20    2
     2    20    18    1
     3    18    13    1
     4    13    14   ar
     5    14    15   ar
     6    15    11    1
     7    11     1    1
     8     1     2   ar
     9     2     3   ar
    10     3     4   ar
    11     4     5   ar
    12     5     6   ar
    13     6     7   ar
    14     7    31    1
    15    31    32    1
    16    32    33    1
    17    33    34    1
    18    34    35    1
    19    35    36    1
    20    36    37    1
    21    37    38    1
    22    38    39    1
    23    39    40    1
    24    40    41    1
    25     7     8   ar
    26     8     9   ar
    27     9    10   ar
    28    15    16   ar
    29    16    17   ar
    30    20    21   am
    31    21    23    1
    32    23    24   ar
    33    24    25   ar
    34    25    26   ar
    35    26    27   ar
    36    27    28    1
    37    27    29   ar
    38    29    30    1
    39    17    13   ar
    40    29    23   ar
    41    10     1   ar
    42    10     5   ar
    43    39    35    1
    44    11    12    1
    45    41    42    1
    46    21    22    1
@<TRIPOS>MOLECULE
*****
 42 46 0 0 0
SMALL
GASTEIGER

@<TRIPOS>ATOM
      1 C         142.9466  140.2675  160.0396 C.ar    1  UNL1        0.1539
      2 N         142.8454  139.2368  158.9546 N.ar    1  UNL1       -0.1328
      3 N         141.5492  139.0395  158.2260 N.ar    1  UNL1       -0.1452
      4 C         140.3541  139.8729  158.5825 C.ar    1  UNL1        0.1223
      5 C         140.4552  140.9037  159.6675 C.ar    1  UNL1        0.0267
      6 C         139.2601  141.7372  160.0239 C.ar    1  UNL1        0.0386
      7 C         139.3612  142.7679  161.1089 C.ar    1  UNL1        0.1386
      8 C         140.6575  142.9652  161.8376 C.ar    1  UNL1        0.0370
      9 C         141.8526  142.1318  161.4811 C.ar    1  UNL1        0.0060
     10 C         141.7514  141.1010  160.3960 C.ar    1  UNL1        0.0352
     11 N         144.2428  140.4648  160.7682 N.pl3   1  UNL1       -0.2941
     12 H         145.0460  140.7502  160.2755 H       1  UNL1        0.1537
     13 N         143.9379  139.2972  164.4573 N.ar    1  UNL1       -0.2387
     14 C         143.5667  139.1740  163.0092 C.ar    1  UNL1        0.1118
     15 C         144.3153  140.2273  162.2475 C.ar    1  UNL1        0.0896
     16 C         145.1492  141.0014  163.2250 C.ar    1  UNL1        0.1363
     17 N         144.9159  140.4266  164.5907 N.ar    1  UNL1       -0.1658
     18 C         143.4216  138.4412  165.5757 C.3     1  UNL1        0.2122
     19 O         143.2634  138.6791  168.1579 O.2     1  UNL1       -0.2726
     20 C         142.8071  139.0791  166.7862 C.2     1  UNL1        0.2510
     21 N         141.7363  140.1170  166.6249 N.am    1  UNL1       -0.2805
     22 H         141.4368  140.3796  165.7246 H       1  UNL1        0.1550
     23 C         141.1218  140.7549  167.8355 C.ar    1  UNL1        0.0804
     24 C         139.9811  140.0824  168.5402 C.ar    1  UNL1        0.0171
     25 C         139.3666  140.7204  169.7507 C.ar    1  UNL1        0.0037
     26 C         139.8927  142.0308  170.2566 C.ar    1  UNL1        0.0321
     27 C         141.0334  142.7034  169.5519 C.ar    1  UNL1        0.1686
     28 F         141.5596  144.0138  170.0577 F       1  UNL1       -0.2018
     29 C         141.6480  142.0655  168.3414 C.ar    1  UNL1        0.1807
     30 F         142.7886  142.7380  167.6367 F       1  UNL1       -0.2005
     31 O         138.1661  143.6014  161.4654 O.3     1  UNL1       -0.4754
     32 C         137.8221  143.8420  162.9054 C.3     1  UNL1        0.2068
     33 C         137.4908  142.6850  163.8008 C.3     1  UNL1        0.0646
     34 C         137.2606  141.3241  163.2136 C.3     1  UNL1        0.0760
     35 N         137.8985  140.1194  163.8396 N.3     1  UNL1       -0.2716
     36 C         138.1969  139.9376  165.2983 C.3     1  UNL1        0.0722
     37 C         138.8328  138.5909  165.4771 C.3     1  UNL1        0.0188
     38 C         138.9274  137.9403  164.1288 C.3     1  UNL1        0.0199
     39 C         138.3500  138.8850  163.1167 C.3     1  UNL1        0.0870
     40 C         138.2428  138.6386  161.6411 C.3     1  UNL1        0.1530
     41 O         139.0711  137.5662  160.9976 O.3     1  UNL1       -0.3806
     42 H         140.0096  137.8046  161.0546 H       1  UNL1        0.2105
@<TRIPOS>BOND
     1    19    20    2
     2    20    18    1
     3    18    13    1
     4    13    14   ar
     5    14    15   ar
     6    15    11    1
     7    11     1    1
     8     1     2   ar
     9     2     3   ar
    10     3     4   ar
    11     4     5   ar
    12     5     6   ar
    13     6     7   ar
    14     7    31    1
    15    31    32    1
    16    32    33    1
    17    33    34    1
    18    34    35    1
    19    35    36    1
    20    36    37    1
    21    37    38    1
    22    38    39    1
    23    39    40    1
    24    40    41    1
    25     7     8   ar
    26     8     9   ar
    27     9    10   ar
    28    15    16   ar
    29    16    17   ar
    30    20    21   am
    31    21    23    1
    32    23    24   ar
    33    24    25   ar
    34    25    26   ar
    35    26    27   ar
    36    27    28    1
    37    27    29   ar
    38    29    30    1
    39    17    13   ar
    40    29    23   ar
    41    10     1   ar
    42    10     5   ar
    43    39    35    1
    44    11    12    1
    45    41    42    1
    46    21    22    1
@<TRIPOS>MOLECULE
*****
 42 46 0 0 0
SMALL
GASTEIGER

@<TRIPOS>ATOM
      1 C         138.3693  139.7693  161.4124 C.ar    1  UNL1        0.1539
      2 N         138.0315  141.1140  160.8400 N.ar    1  UNL1       -0.1328
      3 N         137.7831  142.2772  161.7538 N.ar    1  UNL1       -0.1452
      4 C         137.8725  142.0957  163.2401 C.ar    1  UNL1        0.1223
      5 C         138.2103  140.7511  163.8125 C.ar    1  UNL1        0.0267
      6 C         138.2997  140.5696  165.2988 C.ar    1  UNL1        0.0386
      7 C         138.6376  139.2250  165.8713 C.ar    1  UNL1        0.1386
      8 C         138.8860  138.0617  164.9574 C.ar    1  UNL1        0.0370
      9 C         138.7966  138.2431  163.4711 C.ar    1  UNL1        0.0060
     10 C         138.4587  139.5879  162.8987 C.ar    1  UNL1        0.0352
     11 N         138.6177  138.6060  160.4985 N.pl3   1  UNL1       -0.2941
     12 H         137.9055  137.9456  160.3375 H       1  UNL1        0.1537
     13 N         141.6638  138.1662  158.1335 N.ar    1  UNL1       -0.2387
     14 C         140.1858  138.2903  158.3569 C.ar    1  UNL1        0.1118
     15 C         139.9512  138.4490  159.8299 C.ar    1  UNL1        0.0896
     16 C         141.2844  138.4230  160.5169 C.ar    1  UNL1        0.1363
     17 N         142.3429  138.2483  159.4685 N.ar    1  UNL1       -0.1658
     18 C         142.3435  137.9910  156.8079 C.3     1  UNL1        0.2122
     19 O         144.4037  136.7477  155.8283 O.2     1  UNL1       -0.2726
     20 C         143.0613  136.7112  156.4965 C.2     1  UNL1        0.2510
     21 N         142.4366  135.3950  156.8533 N.am    1  UNL1       -0.2805
     22 H         141.5555  135.3711  157.2918 H       1  UNL1        0.1550
     23 C         143.1543  134.1152  156.5418 C.ar    1  UNL1        0.0804
     24 C         143.0049  133.4811  155.1907 C.ar    1  UNL1        0.0171
     25 C         143.7227  132.2013  154.8793 C.ar    1  UNL1        0.0037
     26 C         144.5898  131.5556  155.9190 C.ar    1  UNL1        0.0321
     27 C         144.7393  132.1896  157.2702 C.ar    1  UNL1        0.1686
     28 F         145.6063  131.5440  158.3100 F       1  UNL1       -0.2018
     29 C         144.0215  133.4695  157.5817 C.ar    1  UNL1        0.1807
     30 F         144.1709  134.1035  158.9328 F       1  UNL1       -0.2005
     31 O         138.7270  139.0435  167.3576 O.3     1  UNL1       -0.4754
     32 C         139.4211  140.0736  168.1985 C.3     1  UNL1        0.2068
     33 C         140.8258  139.8361  168.6678 C.3     1  UNL1        0.0646
     34 C         141.9797  140.4156  167.9045 C.3     1  UNL1        0.0760
     35 N         142.1277  140.1318  166.4390 N.3     1  UNL1       -0.2716
     36 C         142.4113  138.7932  165.8244 C.3     1  UNL1        0.0722
     37 C         142.4771  138.9708  164.3364 C.3     1  UNL1        0.0188
     38 C         142.2341  140.4192  164.0314 C.3     1  UNL1        0.0199
     39 C         142.0182  141.1368  165.3308 C.3     1  UNL1        0.0870
     40 C         141.7413  142.6020  165.4935 C.3     1  UNL1        0.1530
     41 O         140.8473  143.3092  164.5186 O.3     1  UNL1       -0.3806
     42 H         141.2667  143.3195  163.6440 H       1  UNL1        0.2105
@<TRIPOS>BOND
     1    19    20    2
     2    20    18    1
     3    18    13    1
     4    13    14   ar
     5    14    15   ar
     6    15    11    1
     7    11     1    1
     8     1     2   ar
     9     2     3   ar
    10     3     4   ar
    11     4     5   ar
    12     5     6   ar
    13     6     7   ar
    14     7    31    1
    15    31    32    1
    16    32    33    1
    17    33    34    1
    18    34    35    1
    19    35    36    1
    20    36    37    1
    21    37    38    1
    22    38    39    1
    23    39    40    1
    24    40    41    1
    25     7     8   ar
    26     8     9   ar
    27     9    10   ar
    28    15    16   ar
    29    16    17   ar
    30    20    21   am
    31    21    23    1
    32    23    24   ar
    33    24    25   ar
    34    25    26   ar
    35    26    27   ar
    36    27    28    1
    37    27    29   ar
    38    29    30    1
    39    17    13   ar
    40    29    23   ar
    41    10     1   ar
    42    10     5   ar
    43    39    35    1
    44    11    12    1
    45    41    42    1
    46    21    22    1
@<TRIPOS>MOLECULE
*****
 42 46 0 0 0
SMALL
GASTEIGER

@<TRIPOS>ATOM
      1 C         143.7015  142.9398  161.5468 C.ar    1  UNL1        0.1539
      2 N         143.8061  143.1812  160.0701 N.ar    1  UNL1       -0.1328
      3 N         142.7750  144.0176  159.3721 N.ar    1  UNL1       -0.1452
      4 C         141.6394  144.6125  160.1507 C.ar    1  UNL1        0.1223
      5 C         141.5348  144.3711  161.6274 C.ar    1  UNL1        0.0267
      6 C         140.3991  144.9661  162.4061 C.ar    1  UNL1        0.0386
      7 C         140.2945  144.7247  163.8828 C.ar    1  UNL1        0.1386
      8 C         141.3256  143.8882  164.5810 C.ar    1  UNL1        0.0370
      9 C         142.4613  143.2933  163.8023 C.ar    1  UNL1        0.0060
     10 C         142.5658  143.5347  162.3255 C.ar    1  UNL1        0.0352
     11 N         144.7326  142.1034  162.2450 N.pl3   1  UNL1       -0.2941
     12 H         145.6584  142.4285  162.3248 H       1  UNL1        0.1537
     13 N         143.7298  139.0290  164.3917 N.ar    1  UNL1       -0.2387
     14 C         144.0666  140.4852  164.2657 C.ar    1  UNL1        0.1118
     15 C         144.3530  140.7716  162.8214 C.ar    1  UNL1        0.0896
     16 C         144.1933  139.4922  162.0548 C.ar    1  UNL1        0.1363
     17 N         143.8081  138.4152  163.0252 N.ar    1  UNL1       -0.1658
     18 C         143.3767  138.3123  165.6612 C.3     1  UNL1        0.2122
     19 O         143.3267  138.7479  168.2219 O.2     1  UNL1       -0.2726
     20 C         142.8561  139.0833  166.8377 C.2     1  UNL1        0.2510
     21 N         141.8648  140.1898  166.6302 N.am    1  UNL1       -0.2805
     22 H         141.5560  140.4100  165.7217 H       1  UNL1        0.1550
     23 C         141.3442  140.9608  167.8068 C.ar    1  UNL1        0.0804
     24 C         142.1127  142.1369  168.3324 C.ar    1  UNL1        0.0171
     25 C         141.5921  142.9079  169.5090 C.ar    1  UNL1        0.0037
     26 C         140.3028  142.5029  170.1601 C.ar    1  UNL1        0.0321
     27 C         139.5342  141.3268  169.6345 C.ar    1  UNL1        0.1686
     28 F         138.2450  140.9218  170.2854 F       1  UNL1       -0.2018
     29 C         140.0549  140.5558  168.4578 C.ar    1  UNL1        0.1807
     30 F         139.2863  139.3798  167.9323 F       1  UNL1       -0.2005
     31 O         139.1589  145.3196  164.6615 O.3     1  UNL1       -0.4754
     32 C         138.0728  144.4351  165.1981 C.3     1  UNL1        0.2068
     33 C         137.5122  143.3349  164.3464 C.3     1  UNL1        0.0646
     34 C         138.0148  141.9309  164.5083 C.3     1  UNL1        0.0760
     35 N         138.9542  141.3490  163.4941 N.3     1  UNL1       -0.2716
     36 C         140.0524  140.3656  163.7715 C.3     1  UNL1        0.0722
     37 C         140.7373  140.0570  162.4732 C.3     1  UNL1        0.0188
     38 C         140.0625  140.8497  161.3933 C.3     1  UNL1        0.0199
     39 C         138.9605  141.6482  162.0242 C.3     1  UNL1        0.0870
     40 C         138.0284  142.5820  161.3106 C.3     1  UNL1        0.1530
     41 O         138.3841  143.1014  159.9491 O.3     1  UNL1       -0.3806
     42 H         139.1661  143.6715  160.0147 H       1  UNL1        0.2105
@<TRIPOS>BOND
     1    19    20    2
     2    20    18    1
     3    18    13    1
     4    13    14   ar
     5    14    15   ar
     6    15    11    1
     7    11     1    1
     8     1     2   ar
     9     2     3   ar
    10     3     4   ar
    11     4     5   ar
    12     5     6   ar
    13     6     7   ar
    14     7    31    1
    15    31    32    1
    16    32    33    1
    17    33    34    1
    18    34    35    1
    19    35    36    1
    20    36    37    1
    21    37    38    1
    22    38    39    1
    23    39    40    1
    24    40    41    1
    25     7     8   ar
    26     8     9   ar
    27     9    10   ar
    28    15    16   ar
    29    16    17   ar
    30    20    21   am
    31    21    23    1
    32    23    24   ar
    33    24    25   ar
    34    25    26   ar
    35    26    27   ar
    36    27    28    1
    37    27    29   ar
    38    29    30    1
    39    17    13   ar
    40    29    23   ar
    41    10     1   ar
    42    10     5   ar
    43    39    35    1
    44    11    12    1
    45    41    42    1
    46    21    22    1
