@<TRIPOS>MOLECULE
*****
 35 38 0 0 0
SMALL
GASTEIGER

@<TRIPOS>ATOM
      1 C         141.5947  141.9652  166.4577 C.ar    1  UNL1        0.0289
      2 C         141.2225  142.6524  165.1773 C.ar    1  UNL1        0.0145
      3 C         142.2309  143.5008  164.4608 C.ar    1  UNL1        0.0505
      4 C         143.6115  143.6619  165.0246 C.ar    1  UNL1        0.0170
      5 C         143.9837  142.9747  166.3049 C.ar    1  UNL1        0.0306
      6 C         142.9753  142.1264  167.0215 C.ar    1  UNL1        0.1380
      7 F         143.3475  141.4392  168.3018 F       1  UNL1       -0.2044
      8 C         138.6820  137.6247  165.0698 C.3     1  UNL1        0.0320
      9 C         139.3167  138.7888  165.7712 C.3     1  UNL1        0.1155
     10 C         138.9431  139.1045  167.1892 C.3     1  UNL1        0.0327
     11 C         139.5778  140.2686  167.8906 C.3     1  UNL1        0.0407
     12 C         139.2041  140.5843  169.3087 C.3     1  UNL1        0.0672
     13 S         139.8388  141.7484  170.0101 S.3     1  UNL1       -0.0807
     14 C         140.8473  142.5967  169.2936 C.2     1  UNL1        0.1482
     15 N         141.4821  143.7608  169.9950 N.pl3   1  UNL1       -0.3380
     16 N         141.2210  142.2810  167.8756 N.2     1  UNL1       -0.2484
     17 C         140.5862  141.1169  167.1742 C.3     1  UNL1        0.1352
     18 C         140.9599  140.8012  165.7562 C.3     1  UNL1        0.1685
     19 O         140.3252  139.6371  165.0548 O.3     1  UNL1       -0.3539
     20 H         141.2368  143.9680  170.9257 H       1  UNL1        0.1442
     21 H         142.1439  144.3176  169.5248 H       1  UNL1        0.1442
     22 N         141.8587  144.1880  163.1804 N.am    1  UNL1       -0.2791
     23 C         142.1753  143.5431  161.8637 C.2     1  UNL1        0.2672
     24 O         142.8641  142.2110  161.8272 O.2     1  UNL1       -0.2682
     25 H         141.4067  145.0622  163.2044 H       1  UNL1        0.1552
     26 C         141.8032  144.2303  160.5833 C.ar    1  UNL1        0.1350
     27 C         140.5837  145.1018  160.5269 C.ar    1  UNL1        0.0269
     28 C         140.2116  145.7890  159.2465 C.ar    1  UNL1        0.0404
     29 C         141.0590  145.6046  158.0226 C.ar    1  UNL1        0.1634
     30 C         142.2785  144.7330  158.0790 C.ar    1  UNL1        0.1359
     31 N         142.6506  144.0458  159.3594 N.ar    1  UNL1       -0.2361
     32 O         140.6868  146.2917  156.7422 O.3     1  UNL1       -0.4220
     33 C         139.2967  146.8221  156.5523 C.3     1  UNL1        0.5087
     34 F         138.8751  148.0855  157.2424 F       1  UNL1       -0.1550
     35 F         138.3280  146.0892  155.6722 F       1  UNL1       -0.1550
@<TRIPOS>BOND
     1     9     8    1
     2     9    10    1
     3    11    10    1
     4    11    12    1
     5    12    13    1
     6    13    14    1
     7    14    15    1
     8    14    16    2
     9    16    17    1
    10    17     1    1
    11     1     2   ar
    12     2     3   ar
    13     3    22    1
    14    22    23   am
    15    23    24    2
    16    23    26    1
    17    26    27   ar
    18    27    28   ar
    19    28    29   ar
    20    29    32    1
    21    32    33    1
    22    33    34    1
    23    33    35    1
    24    29    30   ar
    25    30    31   ar
    26     3     4   ar
    27     4     5   ar
    28     5     6   ar
    29     6     7    1
    30    17    18    1
    31    18    19    1
    32    19     9    1
    33    17    11    1
    34     6     1   ar
    35    31    26   ar
    36    15    20    1
    37    15    21    1
    38    22    25    1
@<TRIPOS>MOLECULE
*****
 35 38 0 0 0
SMALL
GASTEIGER

@<TRIPOS>ATOM
      1 C         141.5710  142.0737  164.0215 C.ar    1  UNL1        0.0289
      2 C         142.2673  141.7514  162.7325 C.ar    1  UNL1        0.0145
      3 C         143.7261  142.0606  162.5704 C.ar    1  UNL1        0.0505
      4 C         144.4887  142.6920  163.6973 C.ar    1  UNL1        0.0170
      5 C         143.7925  143.0142  164.9862 C.ar    1  UNL1        0.0306
      6 C         142.3336  142.7050  165.1484 C.ar    1  UNL1        0.1380
      7 F         141.6374  143.0273  166.4373 F       1  UNL1       -0.2044
      8 C         138.8004  137.5919  165.2412 C.3     1  UNL1        0.0320
      9 C         139.2377  138.9828  164.8887 C.3     1  UNL1        0.1155
     10 C         138.2162  140.0645  164.6981 C.3     1  UNL1        0.0327
     11 C         138.6534  141.4554  164.3456 C.3     1  UNL1        0.0407
     12 C         137.6318  142.5371  164.1551 C.3     1  UNL1        0.0672
     13 S         138.0691  143.9280  163.8025 S.3     1  UNL1       -0.0807
     14 C         139.5280  144.2371  163.6405 C.2     1  UNL1        0.1482
     15 N         139.9652  145.6280  163.2879 N.pl3   1  UNL1       -0.3380
     16 N         140.5495  143.1554  163.8310 N.2     1  UNL1       -0.2484
     17 C         140.1122  141.7645  164.1835 C.3     1  UNL1        0.1352
     18 C         141.1337  140.6828  164.3740 C.3     1  UNL1        0.1685
     19 O         140.6965  139.2919  164.7266 O.3     1  UNL1       -0.3539
     20 H         139.2948  146.3379  163.1629 H       1  UNL1        0.1442
     21 H         140.9227  145.8308  163.1815 H       1  UNL1        0.1442
     22 N         144.4224  141.7384  161.2814 N.am    1  UNL1       -0.2791
     23 C         144.1699  142.5759  160.0629 C.2     1  UNL1        0.2672
     24 O         143.2211  143.7356  160.1334 O.2     1  UNL1       -0.2682
     25 H         145.0451  140.9772  161.2352 H       1  UNL1        0.1552
     26 C         144.8661  142.2537  158.7740 C.ar    1  UNL1        0.1350
     27 C         144.2806  141.2374  157.8389 C.ar    1  UNL1        0.0269
     28 C         144.9769  140.9152  156.5500 C.ar    1  UNL1        0.0404
     29 C         146.2587  141.6094  156.1960 C.ar    1  UNL1        0.1634
     30 C         146.8442  142.6257  157.1311 C.ar    1  UNL1        0.1359
     31 N         146.1479  142.9478  158.4201 N.ar    1  UNL1       -0.2361
     32 O         146.9549  141.2872  154.9071 O.3     1  UNL1       -0.4220
     33 C         148.3391  141.8060  154.6523 C.3     1  UNL1        0.5087
     34 F         148.5686  142.8411  153.5912 F       1  UNL1       -0.1550
     35 F         149.4938  141.2898  155.4585 F       1  UNL1       -0.1550
@<TRIPOS>BOND
     1     9     8    1
     2     9    10    1
     3    11    10    1
     4    11    12    1
     5    12    13    1
     6    13    14    1
     7    14    15    1
     8    14    16    2
     9    16    17    1
    10    17     1    1
    11     1     2   ar
    12     2     3   ar
    13     3    22    1
    14    22    23   am
    15    23    24    2
    16    23    26    1
    17    26    27   ar
    18    27    28   ar
    19    28    29   ar
    20    29    32    1
    21    32    33    1
    22    33    34    1
    23    33    35    1
    24    29    30   ar
    25    30    31   ar
    26     3     4   ar
    27     4     5   ar
    28     5     6   ar
    29     6     7    1
    30    17    18    1
    31    18    19    1
    32    19     9    1
    33    17    11    1
    34     6     1   ar
    35    31    26   ar
    36    15    20    1
    37    15    21    1
    38    22    25    1
@<TRIPOS>MOLECULE
*****
 35 38 0 0 0
SMALL
GASTEIGER

@<TRIPOS>ATOM
      1 C         141.9070  140.3715  165.1973 C.ar    1  UNL1        0.0289
      2 C         141.4985  141.1610  163.9890 C.ar    1  UNL1        0.0145
      3 C         142.2756  141.0342  162.7123 C.ar    1  UNL1        0.0505
      4 C         143.4613  140.1180  162.6439 C.ar    1  UNL1        0.0170
      5 C         143.8698  139.3286  163.8521 C.ar    1  UNL1        0.0306
      6 C         143.0927  139.4553  165.1288 C.ar    1  UNL1        0.1380
      7 F         143.5012  138.6658  166.3370 F       1  UNL1       -0.2044
      8 C         137.3670  138.1020  167.0649 C.3     1  UNL1        0.0320
      9 C         138.6213  138.9008  166.8679 C.3     1  UNL1        0.1155
     10 C         139.0984  139.8263  167.9476 C.3     1  UNL1        0.0327
     11 C         140.3527  140.6250  167.7506 C.3     1  UNL1        0.0407
     12 C         140.8298  141.5506  168.8304 C.3     1  UNL1        0.0672
     13 S         142.0841  142.3493  168.6334 S.3     1  UNL1       -0.0807
     14 C         142.8612  142.2225  167.3567 C.2     1  UNL1        0.1482
     15 N         144.1155  143.0213  167.1597 N.pl3   1  UNL1       -0.3380
     16 N         142.3841  141.2970  166.2770 N.2     1  UNL1       -0.2484
     17 C         141.1298  140.4983  166.4740 C.3     1  UNL1        0.1352
     18 C         140.6527  139.5728  165.3943 C.3     1  UNL1        0.1685
     19 O         139.3984  138.7740  165.5913 O.3     1  UNL1       -0.3539
     20 H         144.4286  143.6287  167.8683 H       1  UNL1        0.1442
     21 H         144.6256  142.9380  166.3217 H       1  UNL1        0.1442
     22 N         141.8671  141.8237  161.5041 N.am    1  UNL1       -0.2791
     23 C         142.2794  143.2599  161.3720 C.2     1  UNL1        0.2672
     24 O         143.1002  143.9066  162.4482 O.2     1  UNL1       -0.2682
     25 H         141.3284  141.3993  160.7977 H       1  UNL1        0.1552
     26 C         141.8709  144.0494  160.1638 C.ar    1  UNL1        0.1350
     27 C         140.6010  144.8475  160.1835 C.ar    1  UNL1        0.0269
     28 C         140.1926  145.6370  158.9753 C.ar    1  UNL1        0.0404
     29 C         141.0540  145.6284  157.7473 C.ar    1  UNL1        0.1634
     30 C         142.3239  144.8303  157.7276 C.ar    1  UNL1        0.1359
     31 N         142.7324  144.0408  158.9359 N.ar    1  UNL1       -0.2361
     32 O         140.6456  146.4179  156.5391 O.3     1  UNL1       -0.4220
     33 C         139.2478  146.9508  156.4287 C.3     1  UNL1        0.5087
     34 F         138.8432  148.1633  157.2137 F       1  UNL1       -0.1550
     35 F         138.2545  146.2713  155.5334 F       1  UNL1       -0.1550
@<TRIPOS>BOND
     1     9     8    1
     2     9    10    1
     3    11    10    1
     4    11    12    1
     5    12    13    1
     6    13    14    1
     7    14    15    1
     8    14    16    2
     9    16    17    1
    10    17     1    1
    11     1     2   ar
    12     2     3   ar
    13     3    22    1
    14    22    23   am
    15    23    24    2
    16    23    26    1
    17    26    27   ar
    18    27    28   ar
    19    28    29   ar
    20    29    32    1
    21    32    33    1
    22    33    34    1
    23    33    35    1
    24    29    30   ar
    25    30    31   ar
    26     3     4   ar
    27     4     5   ar
    28     5     6   ar
    29     6     7    1
    30    17    18    1
    31    18    19    1
    32    19     9    1
    33    17    11    1
    34     6     1   ar
    35    31    26   ar
    36    15    20    1
    37    15    21    1
    38    22    25    1
@<TRIPOS>MOLECULE
*****
 35 38 0 0 0
SMALL
GASTEIGER

@<TRIPOS>ATOM
      1 C         143.0484  141.1360  163.5898 C.ar    1  UNL1        0.0289
      2 C         142.4810  142.0836  162.5747 C.ar    1  UNL1        0.0145
      3 C         143.3953  142.8093  161.6327 C.ar    1  UNL1        0.0505
      4 C         144.8770  142.5875  161.7058 C.ar    1  UNL1        0.0170
      5 C         145.4444  141.6401  162.7208 C.ar    1  UNL1        0.0306
      6 C         144.5301  140.9143  163.6628 C.ar    1  UNL1        0.1380
      7 F         145.0975  139.9668  164.6778 F       1  UNL1       -0.2044
      8 C         140.5169  142.5143  168.1660 C.3     1  UNL1        0.0320
      9 C         141.0560  141.8129  166.9546 C.3     1  UNL1        0.1155
     10 C         140.6807  140.3859  166.6851 C.3     1  UNL1        0.0327
     11 C         141.2198  139.6846  165.4737 C.3     1  UNL1        0.0407
     12 C         140.8445  138.2574  165.2042 C.3     1  UNL1        0.0672
     13 S         141.3835  137.5561  163.9928 S.3     1  UNL1       -0.0807
     14 C         142.2979  138.2819  163.0508 C.2     1  UNL1        0.1482
     15 N         142.8369  137.5806  161.8393 N.pl3   1  UNL1       -0.3380
     16 N         142.6731  139.7090  163.3203 N.2     1  UNL1       -0.2484
     17 C         142.1341  140.4103  164.5317 C.3     1  UNL1        0.1352
     18 C         142.5093  141.8373  164.8012 C.3     1  UNL1        0.1685
     19 O         141.9703  142.5387  166.0126 O.3     1  UNL1       -0.3539
     20 H         142.5906  136.6440  161.6625 H       1  UNL1        0.1442
     21 H         143.4370  138.0569  161.2211 H       1  UNL1        0.1442
     22 N         142.8279  143.7568  160.6176 N.am    1  UNL1       -0.2791
     23 C         142.6127  143.3016  159.2047 C.2     1  UNL1        0.2672
     24 O         142.9649  141.8988  158.8068 O.2     1  UNL1       -0.2682
     25 H         142.5967  144.6775  160.8788 H       1  UNL1        0.1552
     26 C         142.0453  144.2490  158.1896 C.ar    1  UNL1        0.1350
     27 C         140.9408  145.1878  158.5750 C.ar    1  UNL1        0.0269
     28 C         140.3734  146.1353  157.5599 C.ar    1  UNL1        0.0404
     29 C         140.9106  146.1439  156.1594 C.ar    1  UNL1        0.1634
     30 C         142.0152  145.2051  155.7740 C.ar    1  UNL1        0.1359
     31 N         142.5825  144.2576  156.7892 N.ar    1  UNL1       -0.2361
     32 O         140.3432  147.0914  155.1443 O.3     1  UNL1       -0.4220
     33 C         138.8874  147.4505  155.1850 C.3     1  UNL1        0.5087
     34 F         137.8480  146.3973  154.9395 F       1  UNL1       -0.1550
     35 F         138.4711  148.8628  155.4711 F       1  UNL1       -0.1550
@<TRIPOS>BOND
     1     9     8    1
     2     9    10    1
     3    11    10    1
     4    11    12    1
     5    12    13    1
     6    13    14    1
     7    14    15    1
     8    14    16    2
     9    16    17    1
    10    17     1    1
    11     1     2   ar
    12     2     3   ar
    13     3    22    1
    14    22    23   am
    15    23    24    2
    16    23    26    1
    17    26    27   ar
    18    27    28   ar
    19    28    29   ar
    20    29    32    1
    21    32    33    1
    22    33    34    1
    23    33    35    1
    24    29    30   ar
    25    30    31   ar
    26     3     4   ar
    27     4     5   ar
    28     5     6   ar
    29     6     7    1
    30    17    18    1
    31    18    19    1
    32    19     9    1
    33    17    11    1
    34     6     1   ar
    35    31    26   ar
    36    15    20    1
    37    15    21    1
    38    22    25    1
@<TRIPOS>MOLECULE
*****
 35 38 0 0 0
SMALL
GASTEIGER

@<TRIPOS>ATOM
      1 C         142.0355  141.0895  163.4039 C.ar    1  UNL1        0.0289
      2 C         141.6936  140.3939  162.1196 C.ar    1  UNL1        0.0145
      3 C         141.9006  138.9139  161.9901 C.ar    1  UNL1        0.0505
      4 C         142.4495  138.1295  163.1449 C.ar    1  UNL1        0.0170
      5 C         142.7913  138.8250  164.4291 C.ar    1  UNL1        0.0306
      6 C         142.5843  140.3051  164.5587 C.ar    1  UNL1        0.1380
      7 F         142.9262  141.0006  165.8429 F       1  UNL1       -0.2044
      8 C         137.8290  144.1775  164.8253 C.3     1  UNL1        0.0320
      9 C         139.1622  143.6415  164.3947 C.3     1  UNL1        0.1155
     10 C         140.2883  144.5854  164.0936 C.3     1  UNL1        0.0327
     11 C         141.6214  144.0494  163.6629 C.3     1  UNL1        0.0407
     12 C         142.7476  144.9935  163.3618 C.3     1  UNL1        0.0672
     13 S         144.0808  144.4575  162.9312 S.3     1  UNL1       -0.0807
     14 C         144.2877  142.9774  162.8017 C.2     1  UNL1        0.1482
     15 N         145.6209  142.4414  162.3711 N.pl3   1  UNL1       -0.3380
     16 N         143.1616  142.0335  163.1028 N.2     1  UNL1       -0.2484
     17 C         141.8285  142.5695  163.5334 C.3     1  UNL1        0.1352
     18 C         140.7023  141.6255  163.8346 C.3     1  UNL1        0.1685
     19 O         139.3692  142.1615  164.2652 O.3     1  UNL1       -0.3539
     20 H         146.3600  143.0610  162.1734 H       1  UNL1        0.1442
     21 H         145.7567  141.4700  162.2861 H       1  UNL1        0.1442
     22 N         141.5587  138.2183  160.7058 N.am    1  UNL1       -0.2791
     23 C         142.5049  138.2819  159.5436 C.2     1  UNL1        0.2672
     24 O         143.7929  139.0410  159.6657 O.2     1  UNL1       -0.2682
     25 H         140.7134  137.7201  160.6257 H       1  UNL1        0.1552
     26 C         142.1631  137.5863  158.2594 C.ar    1  UNL1        0.1350
     27 C         140.9080  137.9477  157.5217 C.ar    1  UNL1        0.0269
     28 C         140.5662  137.2521  156.2374 C.ar    1  UNL1        0.0404
     29 C         141.4795  136.1951  155.6908 C.ar    1  UNL1        0.1634
     30 C         142.7346  135.8338  156.4285 C.ar    1  UNL1        0.1359
     31 N         143.0764  136.5294  157.7128 N.ar    1  UNL1       -0.2361
     32 O         141.1377  135.4996  154.4066 O.3     1  UNL1       -0.4220
     33 C         141.4138  134.0334  154.2512 C.3     1  UNL1        0.5087
     34 F         140.9571  133.0684  155.3048 F       1  UNL1       -0.1550
     35 F         142.1466  133.5322  153.0421 F       1  UNL1       -0.1550
@<TRIPOS>BOND
     1     9     8    1
     2     9    10    1
     3    11    10    1
     4    11    12    1
     5    12    13    1
     6    13    14    1
     7    14    15    1
     8    14    16    2
     9    16    17    1
    10    17     1    1
    11     1     2   ar
    12     2     3   ar
    13     3    22    1
    14    22    23   am
    15    23    24    2
    16    23    26    1
    17    26    27   ar
    18    27    28   ar
    19    28    29   ar
    20    29    32    1
    21    32    33    1
    22    33    34    1
    23    33    35    1
    24    29    30   ar
    25    30    31   ar
    26     3     4   ar
    27     4     5   ar
    28     5     6   ar
    29     6     7    1
    30    17    18    1
    31    18    19    1
    32    19     9    1
    33    17    11    1
    34     6     1   ar
    35    31    26   ar
    36    15    20    1
    37    15    21    1
    38    22    25    1
@<TRIPOS>MOLECULE
*****
 35 38 0 0 0
SMALL
GASTEIGER

@<TRIPOS>ATOM
      1 C         141.6345  139.7519  164.2192 C.ar    1  UNL1        0.0289
      2 C         142.5389  140.2069  163.1122 C.ar    1  UNL1        0.0145
      3 C         142.8271  139.2951  161.9566 C.ar    1  UNL1        0.0505
      4 C         142.2110  137.9283  161.9078 C.ar    1  UNL1        0.0170
      5 C         141.3067  137.4733  163.0146 C.ar    1  UNL1        0.0306
      6 C         141.0184  138.3851  164.1704 C.ar    1  UNL1        0.1380
      7 F         140.1141  137.9301  165.2772 F       1  UNL1       -0.2044
      8 C         138.6235  144.2038  164.8232 C.3     1  UNL1        0.0320
      9 C         139.5311  143.0237  165.0070 C.3     1  UNL1        0.1155
     10 C         140.1505  142.7555  166.3466 C.3     1  UNL1        0.0327
     11 C         141.0580  141.5754  166.5305 C.3     1  UNL1        0.0407
     12 C         141.6774  141.3072  167.8701 C.3     1  UNL1        0.0672
     13 S         142.5850  140.1272  168.0540 S.3     1  UNL1       -0.0807
     14 C         142.8732  139.2154  166.8982 C.2     1  UNL1        0.1482
     15 N         143.7808  138.0353  167.0821 N.pl3   1  UNL1       -0.3380
     16 N         142.2539  139.4836  165.5587 N.2     1  UNL1       -0.2484
     17 C         141.3463  140.6637  165.3748 C.3     1  UNL1        0.1352
     18 C         140.7269  140.9319  164.0353 C.3     1  UNL1        0.1685
     19 O         139.8193  142.1120  163.8514 O.3     1  UNL1       -0.3539
     20 H         144.1873  137.8593  167.9613 H       1  UNL1        0.1442
     21 H         143.9700  137.4369  166.3236 H       1  UNL1        0.1442
     22 N         143.7315  139.7501  160.8497 N.am    1  UNL1       -0.2791
     23 C         143.1472  140.2672  159.5686 C.2     1  UNL1        0.2672
     24 O         141.6586  140.3292  159.3943 O.2     1  UNL1       -0.2682
     25 H         144.7084  139.7093  160.9640 H       1  UNL1        0.1552
     26 C         144.0515  140.7221  158.4617 C.ar    1  UNL1        0.1350
     27 C         144.7275  142.0584  158.5468 C.ar    1  UNL1        0.0269
     28 C         145.6318  142.5134  157.4400 C.ar    1  UNL1        0.0404
     29 C         145.8601  141.6320  156.2478 C.ar    1  UNL1        0.1634
     30 C         145.1841  140.2957  156.1626 C.ar    1  UNL1        0.1359
     31 N         144.2797  139.8408  157.2696 N.ar    1  UNL1       -0.2361
     32 O         146.7643  142.0870  155.1409 O.3     1  UNL1       -0.4220
     33 C         148.2496  141.9216  155.2700 C.3     1  UNL1        0.5087
     34 F         148.9199  142.1683  156.5890 F       1  UNL1       -0.1550
     35 F         149.0646  141.5096  154.0800 F       1  UNL1       -0.1550
@<TRIPOS>BOND
     1     9     8    1
     2     9    10    1
     3    11    10    1
     4    11    12    1
     5    12    13    1
     6    13    14    1
     7    14    15    1
     8    14    16    2
     9    16    17    1
    10    17     1    1
    11     1     2   ar
    12     2     3   ar
    13     3    22    1
    14    22    23   am
    15    23    24    2
    16    23    26    1
    17    26    27   ar
    18    27    28   ar
    19    28    29   ar
    20    29    32    1
    21    32    33    1
    22    33    34    1
    23    33    35    1
    24    29    30   ar
    25    30    31   ar
    26     3     4   ar
    27     4     5   ar
    28     5     6   ar
    29     6     7    1
    30    17    18    1
    31    18    19    1
    32    19     9    1
    33    17    11    1
    34     6     1   ar
    35    31    26   ar
    36    15    20    1
    37    15    21    1
    38    22    25    1
@<TRIPOS>MOLECULE
*****
 35 38 0 0 0
SMALL
GASTEIGER

@<TRIPOS>ATOM
      1 C         140.1479  142.9675  164.4097 C.ar    1  UNL1        0.0289
      2 C         139.8874  142.2561  163.1150 C.ar    1  UNL1        0.0145
      3 C         138.6282  142.5317  162.3480 C.ar    1  UNL1        0.0505
      4 C         137.6294  143.5188  162.8756 C.ar    1  UNL1        0.0170
      5 C         137.8899  144.2301  164.1702 C.ar    1  UNL1        0.0306
      6 C         139.1492  143.9545  164.9373 C.ar    1  UNL1        0.1380
      7 F         139.4097  144.6659  166.2319 F       1  UNL1       -0.2044
      8 C         141.3406  139.8498  168.6649 C.3     1  UNL1        0.0320
      9 C         141.3628  140.7972  167.5022 C.3     1  UNL1        0.1155
     10 C         142.6442  141.4689  167.1064 C.3     1  UNL1        0.0327
     11 C         142.6664  142.4163  165.9437 C.3     1  UNL1        0.0407
     12 C         143.9479  143.0880  165.5479 C.3     1  UNL1        0.0672
     13 S         143.9701  144.0354  164.3852 S.3     1  UNL1       -0.0807
     14 C         142.7108  144.3110  163.6182 C.2     1  UNL1        0.1482
     15 N         142.7330  145.2584  162.4554 N.pl3   1  UNL1       -0.3380
     16 N         141.4294  143.6393  164.0139 N.2     1  UNL1       -0.2484
     17 C         141.4072  142.6919  165.1767 C.3     1  UNL1        0.1352
     18 C         140.1257  142.0201  165.5724 C.3     1  UNL1        0.1685
     19 O         140.1036  141.0728  166.7352 O.3     1  UNL1       -0.3539
     20 H         143.5740  145.6993  162.1957 H       1  UNL1        0.1442
     21 H         141.9065  145.4393  161.9520 H       1  UNL1        0.1442
     22 N         138.3676  141.8203  161.0533 N.am    1  UNL1       -0.2791
     23 C         138.6731  142.4981  159.7505 C.2     1  UNL1        0.2672
     24 O         139.2392  143.8872  159.7424 O.2     1  UNL1       -0.2682
     25 H         137.9961  140.9086  161.0587 H       1  UNL1        0.1552
     26 C         138.4126  141.7867  158.4559 C.ar    1  UNL1        0.1350
     27 C         139.0667  140.4651  158.1815 C.ar    1  UNL1        0.0269
     28 C         138.8062  139.7537  156.8868 C.ar    1  UNL1        0.0404
     29 C         137.8915  140.3641  155.8666 C.ar    1  UNL1        0.1634
     30 C         137.2373  141.6857  156.1410 C.ar    1  UNL1        0.1359
     31 N         137.4979  142.3971  157.4357 N.ar    1  UNL1       -0.2361
     32 O         137.6309  139.6527  154.5719 O.3     1  UNL1       -0.4220
     33 C         136.3756  138.8508  154.3962 C.3     1  UNL1        0.5087
     34 F         135.0381  139.4939  154.6141 F       1  UNL1       -0.1550
     35 F         136.4577  137.4057  154.0027 F       1  UNL1       -0.1550
@<TRIPOS>BOND
     1     9     8    1
     2     9    10    1
     3    11    10    1
     4    11    12    1
     5    12    13    1
     6    13    14    1
     7    14    15    1
     8    14    16    2
     9    16    17    1
    10    17     1    1
    11     1     2   ar
    12     2     3   ar
    13     3    22    1
    14    22    23   am
    15    23    24    2
    16    23    26    1
    17    26    27   ar
    18    27    28   ar
    19    28    29   ar
    20    29    32    1
    21    32    33    1
    22    33    34    1
    23    33    35    1
    24    29    30   ar
    25    30    31   ar
    26     3     4   ar
    27     4     5   ar
    28     5     6   ar
    29     6     7    1
    30    17    18    1
    31    18    19    1
    32    19     9    1
    33    17    11    1
    34     6     1   ar
    35    31    26   ar
    36    15    20    1
    37    15    21    1
    38    22    25    1
@<TRIPOS>MOLECULE
*****
 35 38 0 0 0
SMALL
GASTEIGER

@<TRIPOS>ATOM
      1 C         141.7203  140.4372  164.7563 C.ar    1  UNL1        0.0289
      2 C         141.3336  141.2052  163.5272 C.ar    1  UNL1        0.0145
      3 C         142.2915  141.3131  162.3780 C.ar    1  UNL1        0.0505
      4 C         143.6361  140.6531  162.4578 C.ar    1  UNL1        0.0170
      5 C         144.0229  139.8852  163.6869 C.ar    1  UNL1        0.0306
      6 C         143.0650  139.7772  164.8362 C.ar    1  UNL1        0.1380
      7 F         143.4517  139.0093  166.0652 F       1  UNL1       -0.2044
      8 C         141.3079  142.9250  169.5407 C.3     1  UNL1        0.0320
      9 C         141.1261  142.0598  168.3290 C.3     1  UNL1        0.1155
     10 C         139.9864  141.0866  168.2665 C.3     1  UNL1        0.0327
     11 C         139.8046  140.2213  167.0548 C.3     1  UNL1        0.0407
     12 C         138.6648  139.2481  166.9924 C.3     1  UNL1        0.0672
     13 S         138.4830  138.3828  165.7806 S.3     1  UNL1       -0.0807
     14 C         139.4410  138.4908  164.6314 C.2     1  UNL1        0.1482
     15 N         139.2592  137.6255  163.4196 N.pl3   1  UNL1       -0.3380
     16 N         140.5806  139.4640  164.6939 N.2     1  UNL1       -0.2484
     17 C         140.7625  140.3293  165.9056 C.3     1  UNL1        0.1352
     18 C         141.9021  141.3025  165.9681 C.3     1  UNL1        0.1685
     19 O         142.0839  142.1677  167.1798 O.3     1  UNL1       -0.3539
     20 H         138.5111  136.9868  163.3786 H       1  UNL1        0.1442
     21 H         139.8879  137.6964  162.6654 H       1  UNL1        0.1442
     22 N         141.9047  142.0811  161.1488 N.am    1  UNL1       -0.2791
     23 C         142.0783  143.5705  161.1095 C.2     1  UNL1        0.2672
     24 O         142.6386  144.2919  162.2994 O.2     1  UNL1       -0.2682
     25 H         141.5370  141.6076  160.3679 H       1  UNL1        0.1552
     26 C         141.6916  144.3385  159.8805 C.ar    1  UNL1        0.1350
     27 C         140.3746  145.0545  159.8269 C.ar    1  UNL1        0.0269
     28 C         139.9879  145.8225  158.5978 C.ar    1  UNL1        0.0404
     29 C         140.9182  145.8744  157.4223 C.ar    1  UNL1        0.1634
     30 C         142.2352  145.1584  157.4758 C.ar    1  UNL1        0.1359
     31 N         142.6219  144.3904  158.7050 N.ar    1  UNL1       -0.2361
     32 O         140.5315  146.6424  156.1932 O.3     1  UNL1       -0.4220
     33 C         139.1597  147.2388  156.0821 C.3     1  UNL1        0.5087
     34 F         138.7433  148.3403  157.0112 F       1  UNL1       -0.1550
     35 F         138.2042  146.7337  155.0420 F       1  UNL1       -0.1550
@<TRIPOS>BOND
     1     9     8    1
     2     9    10    1
     3    11    10    1
     4    11    12    1
     5    12    13    1
     6    13    14    1
     7    14    15    1
     8    14    16    2
     9    16    17    1
    10    17     1    1
    11     1     2   ar
    12     2     3   ar
    13     3    22    1
    14    22    23   am
    15    23    24    2
    16    23    26    1
    17    26    27   ar
    18    27    28   ar
    19    28    29   ar
    20    29    32    1
    21    32    33    1
    22    33    34    1
    23    33    35    1
    24    29    30   ar
    25    30    31   ar
    26     3     4   ar
    27     4     5   ar
    28     5     6   ar
    29     6     7    1
    30    17    18    1
    31    18    19    1
    32    19     9    1
    33    17    11    1
    34     6     1   ar
    35    31    26   ar
    36    15    20    1
    37    15    21    1
    38    22    25    1
@<TRIPOS>MOLECULE
*****
 35 38 0 0 0
SMALL
GASTEIGER

@<TRIPOS>ATOM
      1 C         139.6076  140.9030  163.9926 C.ar    1  UNL1        0.0289
      2 C         140.0856  139.9650  162.9240 C.ar    1  UNL1        0.0145
      3 C         139.2182  139.6792  161.7341 C.ar    1  UNL1        0.0505
      4 C         137.8728  140.3313  161.6127 C.ar    1  UNL1        0.0170
      5 C         137.3948  141.2692  162.6812 C.ar    1  UNL1        0.0306
      6 C         138.2622  141.5550  163.8712 C.ar    1  UNL1        0.1380
      7 F         137.7842  142.4929  164.9398 F       1  UNL1       -0.2044
      8 C         144.0575  143.8791  164.7612 C.3     1  UNL1        0.0320
      9 C         142.8633  142.9823  164.9017 C.3     1  UNL1        0.1155
     10 C         142.5365  142.3714  166.2320 C.3     1  UNL1        0.0327
     11 C         141.3423  141.4746  166.3724 C.3     1  UNL1        0.0407
     12 C         141.0155  140.8636  167.7029 C.3     1  UNL1        0.0672
     13 S         139.8213  139.9668  167.8433 S.3     1  UNL1       -0.0807
     14 C         138.9540  139.6810  166.6533 C.2     1  UNL1        0.1482
     15 N         137.7598  138.7842  166.7937 N.pl3   1  UNL1       -0.3380
     16 N         139.2808  140.2920  165.3229 N.2     1  UNL1       -0.2484
     17 C         140.4749  141.1888  165.1825 C.3     1  UNL1        0.1352
     18 C         140.8017  141.7997  163.8522 C.3     1  UNL1        0.1685
     19 O         141.9959  142.6965  163.7117 O.3     1  UNL1       -0.3539
     20 H         137.5453  138.3832  167.6669 H       1  UNL1        0.1442
     21 H         137.1905  138.5966  166.0127 H       1  UNL1        0.1442
     22 N         139.6962  138.7413  160.6654 N.am    1  UNL1       -0.2791
     23 C         140.3243  139.2850  159.4165 C.2     1  UNL1        0.2672
     24 O         140.4745  140.7666  159.2362 O.2     1  UNL1       -0.2682
     25 H         139.5977  137.7689  160.7838 H       1  UNL1        0.1552
     26 C         140.8023  138.3471  158.3479 C.ar    1  UNL1        0.1350
     27 C         139.8704  137.9204  157.2527 C.ar    1  UNL1        0.0269
     28 C         140.3484  136.9826  156.1841 C.ar    1  UNL1        0.0404
     29 C         141.7584  136.4714  156.2107 C.ar    1  UNL1        0.1634
     30 C         142.6903  136.8981  157.3058 C.ar    1  UNL1        0.1359
     31 N         142.2123  137.8360  158.3745 N.ar    1  UNL1       -0.2361
     32 O         142.2364  135.5336  155.1421 O.3     1  UNL1       -0.4220
     33 C         142.4323  134.0793  155.4532 C.3     1  UNL1        0.5087
     34 F         143.8132  133.4938  155.4624 F       1  UNL1       -0.1550
     35 F         141.2474  133.2107  155.7552 F       1  UNL1       -0.1550
@<TRIPOS>BOND
     1     9     8    1
     2     9    10    1
     3    11    10    1
     4    11    12    1
     5    12    13    1
     6    13    14    1
     7    14    15    1
     8    14    16    2
     9    16    17    1
    10    17     1    1
    11     1     2   ar
    12     2     3   ar
    13     3    22    1
    14    22    23   am
    15    23    24    2
    16    23    26    1
    17    26    27   ar
    18    27    28   ar
    19    28    29   ar
    20    29    32    1
    21    32    33    1
    22    33    34    1
    23    33    35    1
    24    29    30   ar
    25    30    31   ar
    26     3     4   ar
    27     4     5   ar
    28     5     6   ar
    29     6     7    1
    30    17    18    1
    31    18    19    1
    32    19     9    1
    33    17    11    1
    34     6     1   ar
    35    31    26   ar
    36    15    20    1
    37    15    21    1
    38    22    25    1
