@<TRIPOS>MOLECULE
*****
 21 23 0 0 0
SMALL
GASTEIGER

@<TRIPOS>ATOM
      1 O         139.6015  143.1999  165.7671 O.2     1  UNL1       -0.2520
      2 C         139.1301  141.9118  165.1601 C.2     1  UNL1        0.3111
      3 N         138.2355  141.7762  163.9637 N.am    1  UNL1       -0.2606
      4 C         138.0230  140.3136  163.7073 C.3     1  UNL1        0.1169
      5 C         138.7862  139.5453  164.7452 C.3     1  UNL1        0.1212
      6 N         139.4704  140.5331  165.6431 N.am    1  UNL1       -0.2413
      7 C         140.3419  140.2004  166.8178 C.ar    1  UNL1        0.0562
      8 C         141.7665  139.7839  166.6007 C.ar    1  UNL1        0.0150
      9 C         142.6380  139.4512  167.7753 C.ar    1  UNL1        0.0021
     10 C         142.0850  139.5352  169.1671 C.ar    1  UNL1        0.0115
     11 C         140.6604  139.9517  169.3842 C.ar    1  UNL1        0.0589
     12 CL        140.1074  140.0357  170.7760 Cl      1  UNL1       -0.0822
     13 C         139.7889  140.2844  168.2096 C.ar    1  UNL1        0.0263
     14 C         137.6554  142.9049  163.1642 C.3     1  UNL1        0.1106
     15 C         138.5509  143.7674  162.3249 C.3     1  UNL1        0.0741
     16 C         139.0316  145.0865  162.8528 C.3     1  UNL1        0.0175
     17 C         139.9270  145.9489  162.0135 C.3     1  UNL1        0.0029
     18 C         140.3418  145.4920  160.6463 C.3     1  UNL1        0.0171
     19 C         139.8612  144.1729  160.1184 C.3     1  UNL1        0.0686
     20 N         138.9657  143.3105  160.9577 N.3     1  UNL1       -0.2972
     21 H         139.4448  142.4182  161.0781 H       1  UNL1        0.1233
@<TRIPOS>BOND
     1     1     2    2
     2     2     3   am
     3     3    14    1
     4    14    15    1
     5    15    16    1
     6    16    17    1
     7    17    18    1
     8    18    19    1
     9    19    20    1
    10     3     4    1
    11     4     5    1
    12     5     6    1
    13     6     7    1
    14     7     8   ar
    15     8     9   ar
    16     9    10   ar
    17    10    11   ar
    18    11    12    1
    19    11    13   ar
    20     6     2   am
    21    13     7   ar
    22    20    15    1
    23    20    21    1
@<TRIPOS>MOLECULE
*****
 21 23 0 0 0
SMALL
GASTEIGER

@<TRIPOS>ATOM
      1 O         139.3489  143.6264  165.3808 O.2     1  UNL1       -0.2520
      2 C         138.9570  142.2226  165.0259 C.2     1  UNL1        0.3111
      3 N         138.1794  141.8041  163.8134 N.am    1  UNL1       -0.2606
      4 C         138.0157  140.3137  163.8594 C.3     1  UNL1        0.1169
      5 C         138.6921  139.8112  165.1004 C.3     1  UNL1        0.1212
      6 N         139.2738  140.9910  165.8213 N.am    1  UNL1       -0.2413
      7 C         140.0382  140.9469  167.1112 C.ar    1  UNL1        0.0562
      8 C         139.5067  140.1586  168.2714 C.ar    1  UNL1        0.0150
      9 C         140.2711  140.1144  169.5613 C.ar    1  UNL1        0.0021
     10 C         141.5670  140.8586  169.6910 C.ar    1  UNL1        0.0115
     11 C         142.0985  141.6470  168.5308 C.ar    1  UNL1        0.0589
     12 CL        143.3944  142.3912  168.6605 Cl      1  UNL1       -0.0822
     13 C         141.3341  141.6911  167.2409 C.ar    1  UNL1        0.0263
     14 C         137.6573  142.7158  162.7429 C.3     1  UNL1        0.1106
     15 C         138.5899  143.6548  162.0368 C.3     1  UNL1        0.0741
     16 C         139.3624  143.1855  160.8397 C.3     1  UNL1        0.0175
     17 C         140.2950  144.1246  160.1337 C.3     1  UNL1        0.0029
     18 C         140.4550  145.5329  160.6247 C.3     1  UNL1        0.0171
     19 C         139.6825  146.0021  161.8218 C.3     1  UNL1        0.0686
     20 N         138.7499  145.0631  162.5278 N.3     1  UNL1       -0.2972
     21 H         137.8246  145.4913  162.5006 H       1  UNL1        0.1233
@<TRIPOS>BOND
     1     1     2    2
     2     2     3   am
     3     3    14    1
     4    14    15    1
     5    15    16    1
     6    16    17    1
     7    17    18    1
     8    18    19    1
     9    19    20    1
    10     3     4    1
    11     4     5    1
    12     5     6    1
    13     6     7    1
    14     7     8   ar
    15     8     9   ar
    16     9    10   ar
    17    10    11   ar
    18    11    12    1
    19    11    13   ar
    20     6     2   am
    21    13     7   ar
    22    20    15    1
    23    20    21    1
@<TRIPOS>MOLECULE
*****
 21 23 0 0 0
SMALL
GASTEIGER

@<TRIPOS>ATOM
      1 O         141.7562  139.5420  165.2062 O.2     1  UNL1       -0.2520
      2 C         140.4354  139.3276  165.8841 C.2     1  UNL1        0.3111
      3 N         139.2978  138.5037  165.3578 N.am    1  UNL1       -0.2606
      4 C         138.1796  138.5663  166.3558 C.3     1  UNL1        0.1169
      5 C         138.6262  139.4289  167.4988 C.3     1  UNL1        0.1212
      6 N         140.0204  139.8994  167.2072 N.am    1  UNL1       -0.2413
      7 C         140.8533  140.7861  168.0848 C.ar    1  UNL1        0.0562
      8 C         142.2470  140.3761  168.4583 C.ar    1  UNL1        0.0150
      9 C         143.0800  141.2627  169.3358 C.ar    1  UNL1        0.0021
     10 C         142.5191  142.5594  169.8400 C.ar    1  UNL1        0.0115
     11 C         141.1254  142.9694  169.4665 C.ar    1  UNL1        0.0589
     12 CL        140.5646  144.2660  169.9707 Cl      1  UNL1       -0.0822
     13 C         140.2925  142.0827  168.5890 C.ar    1  UNL1        0.0263
     14 C         139.2812  137.7496  164.0613 C.3     1  UNL1        0.1106
     15 C         138.9554  138.4632  162.7827 C.3     1  UNL1        0.0741
     16 C         139.5820  138.0179  161.4947 C.3     1  UNL1        0.0175
     17 C         139.2562  138.7315  160.2162 C.3     1  UNL1        0.0029
     18 C         138.3038  139.8903  160.2257 C.3     1  UNL1        0.0171
     19 C         137.6772  140.3355  161.5137 C.3     1  UNL1        0.0686
     20 N         138.0030  139.6220  162.7922 N.3     1  UNL1       -0.2972
     21 H         137.1209  139.2750  163.1688 H       1  UNL1        0.1233
@<TRIPOS>BOND
     1     1     2    2
     2     2     3   am
     3     3    14    1
     4    14    15    1
     5    15    16    1
     6    16    17    1
     7    17    18    1
     8    18    19    1
     9    19    20    1
    10     3     4    1
    11     4     5    1
    12     5     6    1
    13     6     7    1
    14     7     8   ar
    15     8     9   ar
    16     9    10   ar
    17    10    11   ar
    18    11    12    1
    19    11    13   ar
    20     6     2   am
    21    13     7   ar
    22    20    15    1
    23    20    21    1
@<TRIPOS>MOLECULE
*****
 21 23 0 0 0
SMALL
GASTEIGER

@<TRIPOS>ATOM
      1 O         139.1290  138.6992  165.8200 O.2     1  UNL1       -0.2520
      2 C         140.6268  138.7459  165.8862 C.2     1  UNL1        0.3111
      3 N         141.5727  138.0538  164.9502 N.am    1  UNL1       -0.2606
      4 C         142.9722  138.3731  165.3856 C.3     1  UNL1        0.1169
      5 C         142.8912  139.2625  166.5907 C.3     1  UNL1        0.1212
      6 N         141.4416  139.4929  166.9001 N.am    1  UNL1       -0.2413
      7 C         140.9017  140.3244  168.0258 C.ar    1  UNL1        0.0562
      8 C         139.6195  139.9334  168.6991 C.ar    1  UNL1        0.0150
      9 C         139.0796  140.7648  169.8248 C.ar    1  UNL1        0.0021
     10 C         139.8219  141.9873  170.2772 C.ar    1  UNL1        0.0115
     11 C         141.1040  142.3783  169.6040 C.ar    1  UNL1        0.0589
     12 CL        141.8462  143.6007  170.0565 Cl      1  UNL1       -0.0822
     13 C         141.6439  141.5468  168.4783 C.ar    1  UNL1        0.0263
     14 C         141.1869  137.1935  163.7836 C.3     1  UNL1        0.1106
     15 C         140.3051  137.7462  162.7032 C.3     1  UNL1        0.0741
     16 C         140.9108  138.2661  161.4333 C.3     1  UNL1        0.0175
     17 C         140.0290  138.8188  160.3531 C.3     1  UNL1        0.0029
     18 C         138.5414  138.8515  160.5428 C.3     1  UNL1        0.0171
     19 C         137.9357  138.3316  161.8127 C.3     1  UNL1        0.0686
     20 N         138.8175  137.7790  162.8929 N.3     1  UNL1       -0.2972
     21 H         138.5197  136.8165  163.0525 H       1  UNL1        0.1233
@<TRIPOS>BOND
     1     1     2    2
     2     2     3   am
     3     3    14    1
     4    14    15    1
     5    15    16    1
     6    16    17    1
     7    17    18    1
     8    18    19    1
     9    19    20    1
    10     3     4    1
    11     4     5    1
    12     5     6    1
    13     6     7    1
    14     7     8   ar
    15     8     9   ar
    16     9    10   ar
    17    10    11   ar
    18    11    12    1
    19    11    13   ar
    20     6     2   am
    21    13     7   ar
    22    20    15    1
    23    20    21    1
@<TRIPOS>MOLECULE
*****
 21 23 0 0 0
SMALL
GASTEIGER

@<TRIPOS>ATOM
      1 O         141.9332  138.2636  165.4624 O.2     1  UNL1       -0.2520
      2 C         140.5621  138.8054  165.1856 C.2     1  UNL1        0.3111
      3 N         139.7203  138.5010  163.9820 N.am    1  UNL1       -0.2606
      4 C         138.4300  139.2542  164.1164 C.3     1  UNL1        0.1169
      5 C         138.4744  140.0240  165.4030 C.3     1  UNL1        0.1212
      6 N         139.7922  139.7466  166.0638 N.am    1  UNL1       -0.2413
      7 C         140.2582  140.3113  167.3730 C.ar    1  UNL1        0.0562
      8 C         139.4226  140.1342  168.6061 C.ar    1  UNL1        0.0150
      9 C         139.8885  140.6989  169.9153 C.ar    1  UNL1        0.0021
     10 C         141.1901  141.4407  169.9914 C.ar    1  UNL1        0.0115
     11 C         142.0257  141.6177  168.7583 C.ar    1  UNL1        0.0589
     12 CL        143.3272  142.3595  168.8345 Cl      1  UNL1       -0.0822
     13 C         141.5597  141.0530  167.4491 C.ar    1  UNL1        0.0263
     14 C         140.1017  137.6015  162.8439 C.3     1  UNL1        0.1106
     15 C         141.2615  137.9583  161.9620 C.3     1  UNL1        0.0741
     16 C         141.0204  138.6104  160.6329 C.3     1  UNL1        0.0175
     17 C         142.1802  138.9672  159.7512 C.3     1  UNL1        0.0029
     18 C         143.5811  138.6719  160.1985 C.3     1  UNL1        0.0171
     19 C         143.8223  138.0199  161.5277 C.3     1  UNL1        0.0686
     20 N         142.6625  137.6631  162.4094 N.3     1  UNL1       -0.2972
     21 H         142.8002  138.1569  163.2912 H       1  UNL1        0.1233
@<TRIPOS>BOND
     1     1     2    2
     2     2     3   am
     3     3    14    1
     4    14    15    1
     5    15    16    1
     6    16    17    1
     7    17    18    1
     8    18    19    1
     9    19    20    1
    10     3     4    1
    11     4     5    1
    12     5     6    1
    13     6     7    1
    14     7     8   ar
    15     8     9   ar
    16     9    10   ar
    17    10    11   ar
    18    11    12    1
    19    11    13   ar
    20     6     2   am
    21    13     7   ar
    22    20    15    1
    23    20    21    1
@<TRIPOS>MOLECULE
*****
 21 23 0 0 0
SMALL
GASTEIGER

@<TRIPOS>ATOM
      1 O         143.1316  142.7222  165.6210 O.2     1  UNL1       -0.2520
      2 C         141.8298  143.3666  165.2466 C.2     1  UNL1        0.3111
      3 N         141.6269  144.3744  164.1544 N.am    1  UNL1       -0.2606
      4 C         140.1741  144.7470  164.1315 C.3     1  UNL1        0.1169
      5 C         139.4791  143.9694  165.2096 C.3     1  UNL1        0.1212
      6 N         140.5024  143.1162  165.8988 N.am    1  UNL1       -0.2413
      7 C         140.2437  142.1775  167.0398 C.ar    1  UNL1        0.0562
      8 C         139.6910  140.8086  166.7743 C.ar    1  UNL1        0.0150
      9 C         139.4323  139.8698  167.9153 C.ar    1  UNL1        0.0021
     10 C         139.7263  140.3001  169.3219 C.ar    1  UNL1        0.0115
     11 C         140.2791  141.6691  169.5874 C.ar    1  UNL1        0.0589
     12 CL        140.5731  142.0993  170.9940 Cl      1  UNL1       -0.0822
     13 C         140.5378  142.6078  168.4464 C.ar    1  UNL1        0.0263
     14 C         142.6901  144.9148  163.2447 C.3     1  UNL1        0.1106
     15 C         143.1861  144.0874  162.0961 C.3     1  UNL1        0.0741
     16 C         144.3905  143.2101  162.2686 C.3     1  UNL1        0.0175
     17 C         144.8864  142.3827  161.1200 C.3     1  UNL1        0.0029
     18 C         144.1779  142.4326  159.7988 C.3     1  UNL1        0.0171
     19 C         142.9735  143.3098  159.6262 C.3     1  UNL1        0.0686
     20 N         142.4776  144.1372  160.7749 N.3     1  UNL1       -0.2972
     21 H         141.5131  143.8538  160.9471 H       1  UNL1        0.1233
@<TRIPOS>BOND
     1     1     2    2
     2     2     3   am
     3     3    14    1
     4    14    15    1
     5    15    16    1
     6    16    17    1
     7    17    18    1
     8    18    19    1
     9    19    20    1
    10     3     4    1
    11     4     5    1
    12     5     6    1
    13     6     7    1
    14     7     8   ar
    15     8     9   ar
    16     9    10   ar
    17    10    11   ar
    18    11    12    1
    19    11    13   ar
    20     6     2   am
    21    13     7   ar
    22    20    15    1
    23    20    21    1
@<TRIPOS>MOLECULE
*****
 21 23 0 0 0
SMALL
GASTEIGER

@<TRIPOS>ATOM
      1 O         139.7414  139.6216  166.7004 O.2     1  UNL1       -0.2520
      2 C         140.9978  139.2845  165.9535 C.2     1  UNL1        0.3111
      3 N         142.3608  139.1091  166.5547 N.am    1  UNL1       -0.2606
      4 C         143.3171  138.7798  165.4470 C.3     1  UNL1        0.1169
      5 C         142.5452  138.7515  164.1612 C.3     1  UNL1        0.1212
      6 N         141.1117  139.0634  164.4743 N.am    1  UNL1       -0.2413
      7 C         139.9893  139.1408  163.4822 C.ar    1  UNL1        0.0562
      8 C         139.3176  137.8853  163.0102 C.ar    1  UNL1        0.0150
      9 C         138.1952  137.9626  162.0181 C.ar    1  UNL1        0.0021
     10 C         137.7444  139.2954  161.4980 C.ar    1  UNL1        0.0115
     11 C         138.4160  140.5508  161.9700 C.ar    1  UNL1        0.0589
     12 CL        137.9653  141.8836  161.4499 Cl      1  UNL1       -0.0822
     13 C         139.5385  140.4735  162.9621 C.ar    1  UNL1        0.0263
     14 C         142.7067  139.2402  168.0084 C.3     1  UNL1        0.1106
     15 C         142.2016  140.4121  168.7968 C.3     1  UNL1        0.0741
     16 C         143.0414  141.6484  168.9241 C.3     1  UNL1        0.0175
     17 C         142.5364  142.8202  169.7125 C.3     1  UNL1        0.0029
     18 C         141.1915  142.7558  170.3737 C.3     1  UNL1        0.0171
     19 C         140.3517  141.5195  170.2464 C.3     1  UNL1        0.0686
     20 N         140.8568  140.3476  169.4580 N.3     1  UNL1       -0.2972
     21 H         140.1742  140.1727  168.7205 H       1  UNL1        0.1233
@<TRIPOS>BOND
     1     1     2    2
     2     2     3   am
     3     3    14    1
     4    14    15    1
     5    15    16    1
     6    16    17    1
     7    17    18    1
     8    18    19    1
     9    19    20    1
    10     3     4    1
    11     4     5    1
    12     5     6    1
    13     6     7    1
    14     7     8   ar
    15     8     9   ar
    16     9    10   ar
    17    10    11   ar
    18    11    12    1
    19    11    13   ar
    20     6     2   am
    21    13     7   ar
    22    20    15    1
    23    20    21    1
@<TRIPOS>MOLECULE
*****
 21 23 0 0 0
SMALL
GASTEIGER

@<TRIPOS>ATOM
      1 O         141.4566  141.7319  162.9991 O.2     1  UNL1       -0.2520
      2 C         140.1802  142.3983  163.4196 C.2     1  UNL1        0.3111
      3 N         139.8373  143.8461  163.2293 N.am    1  UNL1       -0.2606
      4 C         138.4678  144.0764  163.7963 C.3     1  UNL1        0.1169
      5 C         137.9643  142.7710  164.3370 C.3     1  UNL1        0.1212
      6 N         139.0227  141.7338  164.1042 N.am    1  UNL1       -0.2413
      7 C         138.9384  140.2863  164.4885 C.ar    1  UNL1        0.0562
      8 C         139.6150  139.2460  163.6459 C.ar    1  UNL1        0.0150
      9 C         139.5307  137.7985  164.0301 C.ar    1  UNL1        0.0021
     10 C         138.7697  137.3913  165.2570 C.ar    1  UNL1        0.0115
     11 C         138.0931  138.4317  166.0996 C.ar    1  UNL1        0.0589
     12 CL        137.3321  138.0245  167.3264 Cl      1  UNL1       -0.0822
     13 C         138.1774  139.8792  165.7153 C.ar    1  UNL1        0.0263
     14 C         140.7105  144.8817  162.5852 C.3     1  UNL1        0.1106
     15 C         141.1137  144.7341  161.1479 C.3     1  UNL1        0.0741
     16 C         140.3943  145.5086  160.0837 C.3     1  UNL1        0.0175
     17 C         140.7975  145.3610  158.6466 C.3     1  UNL1        0.0029
     18 C         141.9202  144.4388  158.2735 C.3     1  UNL1        0.0171
     19 C         142.6396  143.6642  159.3377 C.3     1  UNL1        0.0686
     20 N         142.2364  143.8119  160.7748 N.3     1  UNL1       -0.2972
     21 H         143.0618  144.1331  161.2807 H       1  UNL1        0.1233
@<TRIPOS>BOND
     1     1     2    2
     2     2     3   am
     3     3    14    1
     4    14    15    1
     5    15    16    1
     6    16    17    1
     7    17    18    1
     8    18    19    1
     9    19    20    1
    10     3     4    1
    11     4     5    1
    12     5     6    1
    13     6     7    1
    14     7     8   ar
    15     8     9   ar
    16     9    10   ar
    17    10    11   ar
    18    11    12    1
    19    11    13   ar
    20     6     2   am
    21    13     7   ar
    22    20    15    1
    23    20    21    1
@<TRIPOS>MOLECULE
*****
 21 23 0 0 0
SMALL
GASTEIGER

@<TRIPOS>ATOM
      1 O         139.7944  137.5698  164.4908 O.2     1  UNL1       -0.2520
      2 C         139.2536  138.9686  164.4639 C.2     1  UNL1        0.3111
      3 N         138.3484  139.5440  163.4154 N.am    1  UNL1       -0.2606
      4 C         138.0585  140.9687  163.7844 C.3     1  UNL1        0.1169
      5 C         138.7845  141.2739  165.0610 C.3     1  UNL1        0.1212
      6 N         139.5232  140.0377  165.4810 N.am    1  UNL1       -0.2413
      7 C         140.3808  139.8956  166.7034 C.ar    1  UNL1        0.0562
      8 C         141.8391  139.5737  166.5633 C.ar    1  UNL1        0.0150
      9 C         142.6968  139.4316  167.7856 C.ar    1  UNL1        0.0021
     10 C         142.0960  139.6115  169.1483 C.ar    1  UNL1        0.0115
     11 C         140.6377  139.9334  169.2885 C.ar    1  UNL1        0.0589
     12 CL        140.0370  140.1133  170.6511 Cl      1  UNL1       -0.0822
     13 C         139.7801  140.0755  168.0661 C.ar    1  UNL1        0.0263
     14 C         137.8251  138.8215  162.2095 C.3     1  UNL1        0.1106
     15 C         138.3951  139.1149  160.8534 C.3     1  UNL1        0.0741
     16 C         139.6485  138.4259  160.4016 C.3     1  UNL1        0.0175
     17 C         140.2184  138.7193  159.0455 C.3     1  UNL1        0.0029
     18 C         139.5349  139.7017  158.1412 C.3     1  UNL1        0.0171
     19 C         138.2815  140.3907  158.5930 C.3     1  UNL1        0.0686
     20 N         137.7116  140.0973  159.9491 N.3     1  UNL1       -0.2972
     21 H         136.7635  139.7513  159.8014 H       1  UNL1        0.1233
@<TRIPOS>BOND
     1     1     2    2
     2     2     3   am
     3     3    14    1
     4    14    15    1
     5    15    16    1
     6    16    17    1
     7    17    18    1
     8    18    19    1
     9    19    20    1
    10     3     4    1
    11     4     5    1
    12     5     6    1
    13     6     7    1
    14     7     8   ar
    15     8     9   ar
    16     9    10   ar
    17    10    11   ar
    18    11    12    1
    19    11    13   ar
    20     6     2   am
    21    13     7   ar
    22    20    15    1
    23    20    21    1
