@<TRIPOS>MOLECULE
*****
 38 41 0 0 0
SMALL
GASTEIGER

@<TRIPOS>ATOM
      1 O         140.5985  140.2277  158.9010 O.2     1  UNL1       -0.2733
      2 C         141.6137  139.1238  158.9231 C.2     1  UNL1        0.2425
      3 N         141.6378  138.1497  160.0635 N.am    1  UNL1       -0.3032
      4 H         142.3042  137.4252  160.0780 H       1  UNL1        0.1495
      5 C         140.6466  138.2796  161.1819 C.3     1  UNL1        0.0889
      6 C         139.1711  138.0274  161.0860 C.3     1  UNL1        0.0383
      7 C         138.5696  138.2764  162.4373 C.3     1  UNL1        0.0738
      8 N         139.6733  138.6825  163.3684 N.3     1  UNL1       -0.2725
      9 C         140.9570  138.6845  162.5925 C.3     1  UNL1        0.0919
     10 C         139.5202  139.0263  164.8204 C.3     1  UNL1        0.0577
     11 C         138.3435  138.5091  165.5936 C.3     1  UNL1        0.0188
     12 C         138.1904  138.8528  167.0456 C.3     1  UNL1        0.0357
     13 C         139.2141  139.7138  167.7245 C.3     1  UNL1        0.1398
     14 O         138.2802  139.4657  168.8718 O.3     1  UNL1       -0.3796
     15 C         140.3908  140.2310  166.9513 C.3     1  UNL1        0.0357
     16 C         140.5439  139.8873  165.4993 C.3     1  UNL1        0.0188
     17 H         137.5455  138.9058  168.5754 H       1  UNL1        0.2108
     18 C         139.9134  140.4886  168.8018 C.ar    1  UNL1        0.1630
     19 N         140.2769  139.8172  170.0929 N.ar    1  UNL1       -0.2268
     20 C         140.9762  140.5921  171.1703 C.ar    1  UNL1        0.1019
     21 C         141.3119  142.0383  170.9565 C.ar    1  UNL1        0.0413
     22 C         140.9484  142.7097  169.6652 C.ar    1  UNL1        0.1019
     23 N         140.2491  141.9348  168.5879 N.ar    1  UNL1       -0.2268
     24 C         142.6049  138.9939  157.8048 C.3     1  UNL1        0.1759
     25 N         143.0761  137.6365  157.3741 N.am    1  UNL1       -0.2931
     26 C         142.1453  136.7175  156.6399 C.2     1  UNL1        0.2462
     27 O         140.7433  137.1558  156.3364 O.2     1  UNL1       -0.2701
     28 H         143.9963  137.3487  157.5733 H       1  UNL1        0.1502
     29 C         142.6165  135.3600  156.2092 C.ar    1  UNL1        0.0533
     30 C         142.1579  134.7871  154.9011 C.ar    1  UNL1        0.0045
     31 C         142.6291  133.4297  154.4705 C.ar    1  UNL1        0.0001
     32 C         143.5590  132.6453  155.3480 C.ar    1  UNL1        0.0039
     33 C         144.0177  133.2183  156.6561 C.ar    1  UNL1        0.0716
     34 C         143.5465  134.5757  157.0868 C.ar    1  UNL1        0.0084
     35 C         144.9476  132.4339  157.5336 C.3     1  UNL1        0.4186
     36 F         145.8775  131.6496  158.4112 F       1  UNL1       -0.1659
     37 F         144.7471  133.4304  158.6368 F       1  UNL1       -0.1659
     38 F         145.1480  131.4375  156.4305 F       1  UNL1       -0.1659
@<TRIPOS>BOND
     1     1     2    2
     2     2    24    1
     3    24    25    1
     4    25    26   am
     5    26    27    2
     6    26    29    1
     7    29    30   ar
     8    30    31   ar
     9    31    32   ar
    10    32    33   ar
    11    33    35    1
    12    35    36    1
    13    35    37    1
    14    35    38    1
    15    33    34   ar
    16     2     3   am
    17     5     3    1
    18     5     6    1
    19     6     7    1
    20     7     8    1
    21    10     8    1
    22    10    11    1
    23    11    12    1
    24    12    13    1
    25    13    14    1
    26    13    18    1
    27    18    19   ar
    28    19    20   ar
    29    20    21   ar
    30    21    22   ar
    31    22    23   ar
    32    13    15    1
    33    15    16    1
    34     8     9    1
    35    34    29   ar
    36     9     5    1
    37    16    10    1
    38    23    18   ar
    39    25    28    1
    40     3     4    1
    41    14    17    1
@<TRIPOS>MOLECULE
*****
 38 41 0 0 0
SMALL
GASTEIGER

@<TRIPOS>ATOM
      1 O         140.0696  140.3719  158.9201 O.2     1  UNL1       -0.2733
      2 C         138.5882  140.2037  158.7548 C.2     1  UNL1        0.2425
      3 N         137.7726  139.6083  159.8640 N.am    1  UNL1       -0.3032
      4 H         136.8004  139.4979  159.7555 H       1  UNL1        0.1495
      5 C         138.4384  139.1810  161.1385 C.3     1  UNL1        0.0889
      6 C         139.4170  138.0540  161.2872 C.3     1  UNL1        0.0383
      7 C         139.8258  137.9822  162.7286 C.3     1  UNL1        0.0738
      8 N         139.0998  139.0649  163.4708 N.3     1  UNL1       -0.2725
      9 C         138.2424  139.8058  162.4880 C.3     1  UNL1        0.0919
     10 C         139.2117  139.3557  164.9381 C.3     1  UNL1        0.0577
     11 C         138.1841  138.8184  165.8896 C.3     1  UNL1        0.0188
     12 C         138.2959  139.1091  167.3569 C.3     1  UNL1        0.0357
     13 C         139.4354  139.9371  167.8726 C.3     1  UNL1        0.1398
     14 O         138.7168  139.6531  169.1584 O.3     1  UNL1       -0.3796
     15 C         140.4630  140.4744  166.9212 C.3     1  UNL1        0.0357
     16 C         140.3511  140.1837  165.4539 C.3     1  UNL1        0.0188
     17 H         137.9338  139.1098  168.9779 H       1  UNL1        0.2108
     18 C         140.3253  140.6665  168.8350 C.ar    1  UNL1        0.1630
     19 N         140.3432  142.1663  168.8507 N.ar    1  UNL1       -0.2268
     20 C         141.2332  142.8956  169.8131 C.ar    1  UNL1        0.1019
     21 C         142.1052  142.1252  170.7597 C.ar    1  UNL1        0.0413
     22 C         142.0872  140.6253  170.7439 C.ar    1  UNL1        0.1019
     23 N         141.1973  139.8960  169.7815 N.ar    1  UNL1       -0.2268
     24 C         137.9225  140.6309  157.4804 C.3     1  UNL1        0.1759
     25 N         136.4303  140.7741  157.4251 N.am    1  UNL1       -0.2931
     26 C         135.6623  140.1850  156.2792 C.2     1  UNL1        0.2462
     27 O         136.3864  139.4529  155.1885 O.2     1  UNL1       -0.2701
     28 H         135.9550  141.2546  158.1410 H       1  UNL1        0.1502
     29 C         134.1701  140.3282  156.2239 C.ar    1  UNL1        0.0533
     30 C         133.5464  141.3278  155.2957 C.ar    1  UNL1        0.0045
     31 C         132.0543  141.4709  155.2404 C.ar    1  UNL1        0.0001
     32 C         131.1859  140.6143  156.1134 C.ar    1  UNL1        0.0039
     33 C         131.8096  139.6146  157.0417 C.ar    1  UNL1        0.0716
     34 C         133.3017  139.4716  157.0969 C.ar    1  UNL1        0.0084
     35 C         130.9411  138.7581  157.9147 C.3     1  UNL1        0.4186
     36 F         130.0727  137.9015  158.7877 F       1  UNL1       -0.1659
     37 F         129.7215  139.2846  157.2181 F       1  UNL1       -0.1659
     38 F         132.1608  138.2315  158.6113 F       1  UNL1       -0.1659
@<TRIPOS>BOND
     1     1     2    2
     2     2    24    1
     3    24    25    1
     4    25    26   am
     5    26    27    2
     6    26    29    1
     7    29    30   ar
     8    30    31   ar
     9    31    32   ar
    10    32    33   ar
    11    33    35    1
    12    35    36    1
    13    35    37    1
    14    35    38    1
    15    33    34   ar
    16     2     3   am
    17     5     3    1
    18     5     6    1
    19     6     7    1
    20     7     8    1
    21    10     8    1
    22    10    11    1
    23    11    12    1
    24    12    13    1
    25    13    14    1
    26    13    18    1
    27    18    19   ar
    28    19    20   ar
    29    20    21   ar
    30    21    22   ar
    31    22    23   ar
    32    13    15    1
    33    15    16    1
    34     8     9    1
    35    34    29   ar
    36     9     5    1
    37    16    10    1
    38    23    18   ar
    39    25    28    1
    40     3     4    1
    41    14    17    1
@<TRIPOS>MOLECULE
*****
 38 41 0 0 0
SMALL
GASTEIGER

@<TRIPOS>ATOM
      1 O         141.4389  139.8996  159.0229 O.2     1  UNL1       -0.2733
      2 C         142.6545  139.1226  158.6122 C.2     1  UNL1        0.2425
      3 N         143.8425  139.0508  159.5251 N.am    1  UNL1       -0.3032
      4 H         144.6404  138.5409  159.2556 H       1  UNL1        0.1495
      5 C         143.8150  139.7560  160.8488 C.3     1  UNL1        0.0889
      6 C         144.1662  141.1944  161.0891 C.3     1  UNL1        0.0383
      7 C         143.9996  141.4739  162.5533 C.3     1  UNL1        0.0738
      8 N         143.5455  140.2082  163.2181 N.3     1  UNL1       -0.2725
      9 C         143.4314  139.1465  162.1647 C.3     1  UNL1        0.0919
     10 C         143.2562  140.0347  164.6797 C.3     1  UNL1        0.0577
     11 C         143.7530  138.8184  165.4033 C.3     1  UNL1        0.0188
     12 C         143.4638  138.6449  166.8649 C.3     1  UNL1        0.0357
     13 C         142.6777  139.6878  167.6028 C.3     1  UNL1        0.1398
     14 O         142.9323  138.7164  168.7172 O.3     1  UNL1       -0.3796
     15 C         142.1810  140.9042  166.8792 C.3     1  UNL1        0.0357
     16 C         142.4702  141.0776  165.4177 C.3     1  UNL1        0.0188
     17 H         143.4464  137.9658  168.3807 H       1  UNL1        0.2108
     18 C         141.9801  140.3933  168.7278 C.ar    1  UNL1        0.1630
     19 N         140.4817  140.4541  168.7605 N.ar    1  UNL1       -0.2268
     20 C         139.7841  141.1597  169.8855 C.ar    1  UNL1        0.1019
     21 C         140.5849  141.8044  170.9778 C.ar    1  UNL1        0.0413
     22 C         142.0834  141.7435  170.9451 C.ar    1  UNL1        0.1019
     23 N         142.7809  141.0380  169.8201 N.ar    1  UNL1       -0.2268
     24 C         142.6822  138.4175  157.2886 C.3     1  UNL1        0.1759
     25 N         142.4199  136.9422  157.2192 N.am    1  UNL1       -0.2931
     26 C         143.3326  136.0547  156.4260 C.2     1  UNL1        0.2462
     27 O         144.5077  136.6424  155.7022 O.2     1  UNL1       -0.2701
     28 H         141.6486  136.5564  157.6942 H       1  UNL1        0.1502
     29 C         143.0703  134.5794  156.3565 C.ar    1  UNL1        0.0533
     30 C         141.9272  134.0586  155.5367 C.ar    1  UNL1        0.0045
     31 C         141.6650  132.5834  155.4673 C.ar    1  UNL1        0.0001
     32 C         142.5459  131.6289  156.2176 C.ar    1  UNL1        0.0039
     33 C         143.6890  132.1497  157.0374 C.ar    1  UNL1        0.0716
     34 C         143.9512  133.6249  157.1068 C.ar    1  UNL1        0.0084
     35 C         144.5699  131.1952  157.7877 C.3     1  UNL1        0.4186
     36 F         145.4507  130.2407  158.5380 F       1  UNL1       -0.1659
     37 F         143.6611  130.0621  157.4131 F       1  UNL1       -0.1659
     38 F         145.4786  132.3283  158.1623 F       1  UNL1       -0.1659
@<TRIPOS>BOND
     1     1     2    2
     2     2    24    1
     3    24    25    1
     4    25    26   am
     5    26    27    2
     6    26    29    1
     7    29    30   ar
     8    30    31   ar
     9    31    32   ar
    10    32    33   ar
    11    33    35    1
    12    35    36    1
    13    35    37    1
    14    35    38    1
    15    33    34   ar
    16     2     3   am
    17     5     3    1
    18     5     6    1
    19     6     7    1
    20     7     8    1
    21    10     8    1
    22    10    11    1
    23    11    12    1
    24    12    13    1
    25    13    14    1
    26    13    18    1
    27    18    19   ar
    28    19    20   ar
    29    20    21   ar
    30    21    22   ar
    31    22    23   ar
    32    13    15    1
    33    15    16    1
    34     8     9    1
    35    34    29   ar
    36     9     5    1
    37    16    10    1
    38    23    18   ar
    39    25    28    1
    40     3     4    1
    41    14    17    1
@<TRIPOS>MOLECULE
*****
 38 41 0 0 0
SMALL
GASTEIGER

@<TRIPOS>ATOM
      1 O         144.0846  139.1205  159.1539 O.2     1  UNL1       -0.2733
      2 C         143.0298  139.7634  158.3030 C.2     1  UNL1        0.2425
      3 N         142.4179  141.0665  158.7240 N.am    1  UNL1       -0.3032
      4 H         141.7255  141.4885  158.1655 H       1  UNL1        0.1495
      5 C         142.8607  141.7269  159.9960 C.3     1  UNL1        0.0889
      6 C         143.7070  142.9609  160.1005 C.3     1  UNL1        0.0383
      7 C         143.9043  143.2657  161.5559 C.3     1  UNL1        0.0738
      8 N         143.1799  142.2201  162.3509 N.3     1  UNL1       -0.2725
      9 C         142.5349  141.2691  161.3868 C.3     1  UNL1        0.0919
     10 C         143.1124  142.1397  163.8472 C.3     1  UNL1        0.0577
     11 C         143.9667  143.0432  164.6862 C.3     1  UNL1        0.0188
     12 C         143.8992  142.9628  166.1825 C.3     1  UNL1        0.0357
     13 C         142.9773  141.9789  166.8398 C.3     1  UNL1        0.1398
     14 O         143.5848  142.6178  168.0535 O.3     1  UNL1       -0.3796
     15 C         142.1230  141.0754  166.0009 C.3     1  UNL1        0.0357
     16 C         142.1905  141.1558  164.5046 C.3     1  UNL1        0.0188
     17 H         144.2211  143.2959  167.7776 H       1  UNL1        0.2108
     18 C         142.2664  141.2169  167.9187 C.ar    1  UNL1        0.1630
     19 N         143.0528  140.5450  169.0050 N.ar    1  UNL1       -0.2268
     20 C         142.3419  139.7829  170.0839 C.ar    1  UNL1        0.1019
     21 C         140.8446  139.6928  170.0765 C.ar    1  UNL1        0.0413
     22 C         140.0583  140.3648  168.9901 C.ar    1  UNL1        0.1019
     23 N         140.7692  141.1268  167.9112 N.ar    1  UNL1       -0.2268
     24 C         142.5870  139.1031  157.0311 C.3     1  UNL1        0.1759
     25 N         142.3153  137.6281  157.0068 N.am    1  UNL1       -0.2931
     26 C         143.2862  136.6975  156.3426 C.2     1  UNL1        0.2462
     27 O         144.5288  137.2419  155.7026 O.2     1  UNL1       -0.2701
     28 H         141.4998  137.2708  157.4269 H       1  UNL1        0.1502
     29 C         143.0146  135.2224  156.3184 C.ar    1  UNL1        0.0533
     30 C         141.8216  134.6916  155.5802 C.ar    1  UNL1        0.0045
     31 C         141.5501  133.2166  155.5560 C.ar    1  UNL1        0.0001
     32 C         142.4714  132.2725  156.2700 C.ar    1  UNL1        0.0039
     33 C         143.6644  132.8034  157.0082 C.ar    1  UNL1        0.0716
     34 C         143.9360  134.2784  157.0324 C.ar    1  UNL1        0.0084
     35 C         144.5858  131.8593  157.7222 C.3     1  UNL1        0.4186
     36 F         145.5071  130.9152  158.4361 F       1  UNL1       -0.1659
     37 F         143.9064  130.6966  157.0614 F       1  UNL1       -0.1659
     38 F         145.2651  133.0220  158.3829 F       1  UNL1       -0.1659
@<TRIPOS>BOND
     1     1     2    2
     2     2    24    1
     3    24    25    1
     4    25    26   am
     5    26    27    2
     6    26    29    1
     7    29    30   ar
     8    30    31   ar
     9    31    32   ar
    10    32    33   ar
    11    33    35    1
    12    35    36    1
    13    35    37    1
    14    35    38    1
    15    33    34   ar
    16     2     3   am
    17     5     3    1
    18     5     6    1
    19     6     7    1
    20     7     8    1
    21    10     8    1
    22    10    11    1
    23    11    12    1
    24    12    13    1
    25    13    14    1
    26    13    18    1
    27    18    19   ar
    28    19    20   ar
    29    20    21   ar
    30    21    22   ar
    31    22    23   ar
    32    13    15    1
    33    15    16    1
    34     8     9    1
    35    34    29   ar
    36     9     5    1
    37    16    10    1
    38    23    18   ar
    39    25    28    1
    40     3     4    1
    41    14    17    1
@<TRIPOS>MOLECULE
*****
 38 41 0 0 0
SMALL
GASTEIGER

@<TRIPOS>ATOM
      1 O         140.8255  140.7441  159.1662 O.2     1  UNL1       -0.2733
      2 C         140.7815  139.2698  158.8929 C.2     1  UNL1        0.2425
      3 N         140.0804  138.3505  159.8484 N.am    1  UNL1       -0.3032
      4 H         140.0515  137.3829  159.6690 H       1  UNL1        0.1495
      5 C         139.4232  138.9054  161.0774 C.3     1  UNL1        0.0889
      6 C         138.1356  139.6739  161.1180 C.3     1  UNL1        0.0383
      7 C         137.8549  140.0326  162.5472 C.3     1  UNL1        0.0738
      8 N         138.9689  139.4858  163.3898 N.3     1  UNL1       -0.2725
      9 C         139.9381  138.7892  162.4814 C.3     1  UNL1        0.0919
     10 C         139.0921  139.6133  164.8793 C.3     1  UNL1        0.0577
     11 C         138.0370  139.0298  165.7717 C.3     1  UNL1        0.0188
     12 C         138.1602  139.1573  167.2612 C.3     1  UNL1        0.0357
     13 C         139.3384  139.8683  167.8582 C.3     1  UNL1        0.1398
     14 O         138.6039  139.4856  169.1089 O.3     1  UNL1       -0.3796
     15 C         140.3934  140.4518  166.9658 C.3     1  UNL1        0.0357
     16 C         140.2702  140.3243  165.4763 C.3     1  UNL1        0.0188
     17 H         137.7951  139.0041  168.8744 H       1  UNL1        0.2108
     18 C         140.2614  140.4464  168.8897 C.ar    1  UNL1        0.1630
     19 N         139.8204  141.6151  169.7201 N.ar    1  UNL1       -0.2268
     20 C         140.7435  142.1931  170.7515 C.ar    1  UNL1        0.1019
     21 C         142.1077  141.6025  170.9525 C.ar    1  UNL1        0.0413
     22 C         142.5486  140.4337  170.1219 C.ar    1  UNL1        0.1019
     23 N         141.6255  139.8557  169.0906 N.ar    1  UNL1       -0.2268
     24 C         141.4387  138.7149  157.6640 C.3     1  UNL1        0.1759
     25 N         141.4452  137.2348  157.4203 N.am    1  UNL1       -0.2931
     26 C         142.6481  136.5809  156.8077 C.2     1  UNL1        0.2462
     27 O         143.8445  137.4069  156.4387 O.2     1  UNL1       -0.2701
     28 H         140.6600  136.6926  157.6625 H       1  UNL1        0.1502
     29 C         142.6546  135.1007  156.5640 C.ar    1  UNL1        0.0533
     30 C         143.4397  134.1956  157.4663 C.ar    1  UNL1        0.0045
     31 C         143.4462  132.7155  157.2227 C.ar    1  UNL1        0.0001
     32 C         142.6676  132.1407  156.0767 C.ar    1  UNL1        0.0039
     33 C         141.8825  133.0459  155.1744 C.ar    1  UNL1        0.0716
     34 C         141.8760  134.5259  155.4181 C.ar    1  UNL1        0.0084
     35 C         141.1038  132.4710  154.0284 C.3     1  UNL1        0.4186
     36 F         140.3252  131.8961  152.8824 F       1  UNL1       -0.1659
     37 F         141.7698  133.4353  153.0922 F       1  UNL1       -0.1659
     38 F         140.4379  131.5067  154.9646 F       1  UNL1       -0.1659
@<TRIPOS>BOND
     1     1     2    2
     2     2    24    1
     3    24    25    1
     4    25    26   am
     5    26    27    2
     6    26    29    1
     7    29    30   ar
     8    30    31   ar
     9    31    32   ar
    10    32    33   ar
    11    33    35    1
    12    35    36    1
    13    35    37    1
    14    35    38    1
    15    33    34   ar
    16     2     3   am
    17     5     3    1
    18     5     6    1
    19     6     7    1
    20     7     8    1
    21    10     8    1
    22    10    11    1
    23    11    12    1
    24    12    13    1
    25    13    14    1
    26    13    18    1
    27    18    19   ar
    28    19    20   ar
    29    20    21   ar
    30    21    22   ar
    31    22    23   ar
    32    13    15    1
    33    15    16    1
    34     8     9    1
    35    34    29   ar
    36     9     5    1
    37    16    10    1
    38    23    18   ar
    39    25    28    1
    40     3     4    1
    41    14    17    1
@<TRIPOS>MOLECULE
*****
 38 41 0 0 0
SMALL
GASTEIGER

@<TRIPOS>ATOM
      1 O         140.6250  139.1121  157.8612 O.2     1  UNL1       -0.2733
      2 C         141.5550  137.9591  157.6252 C.2     1  UNL1        0.2425
      3 N         142.4802  137.5064  158.7157 N.am    1  UNL1       -0.3032
      4 H         143.0905  136.7497  158.5608 H       1  UNL1        0.1495
      5 C         142.4753  138.2068  160.0422 C.3     1  UNL1        0.0889
      6 C         143.5041  139.1850  160.5265 C.3     1  UNL1        0.0383
      7 C         143.1054  139.6346  161.9009 C.3     1  UNL1        0.0738
      8 N         141.8302  138.9343  162.2660 N.3     1  UNL1       -0.2725
      9 C         141.4408  138.0518  161.1173 C.3     1  UNL1        0.0919
     10 C         141.0767  139.0892  163.5537 C.3     1  UNL1        0.0577
     11 C         139.8279  138.2932  163.7923 C.3     1  UNL1        0.0188
     12 C         139.0744  138.4481  165.0800 C.3     1  UNL1        0.0357
     13 C         139.5697  139.3990  166.1292 C.3     1  UNL1        0.1398
     14 O         138.3452  138.8694  166.8148 O.3     1  UNL1       -0.3796
     15 C         140.8186  140.1949  165.8905 C.3     1  UNL1        0.0357
     16 C         141.5720  140.0400  164.6028 C.3     1  UNL1        0.0188
     17 H         137.9063  138.2235  166.2394 H       1  UNL1        0.2108
     18 C         139.6398  140.1659  167.4164 C.ar    1  UNL1        0.1630
     19 N         140.3893  141.4637  167.4764 N.ar    1  UNL1       -0.2268
     20 C         140.4594  142.2306  168.7636 C.ar    1  UNL1        0.1019
     21 C         139.7798  141.6996  169.9910 C.ar    1  UNL1        0.0413
     22 C         139.0303  140.4016  169.9309 C.ar    1  UNL1        0.1019
     23 N         138.9603  139.6348  168.6437 N.ar    1  UNL1       -0.2268
     24 C         141.5599  137.2587  156.2988 C.3     1  UNL1        0.1759
     25 N         141.5028  135.7608  156.2413 N.am    1  UNL1       -0.2931
     26 C         142.7648  134.9574  156.3502 C.2     1  UNL1        0.2462
     27 O         144.0839  135.6518  156.5167 O.2     1  UNL1       -0.2701
     28 H         140.6370  135.3051  156.1321 H       1  UNL1        0.1502
     29 C         142.7076  133.4596  156.2927 C.ar    1  UNL1        0.0533
     30 C         143.6861  132.6409  157.0815 C.ar    1  UNL1        0.0045
     31 C         143.6290  131.1431  157.0240 C.ar    1  UNL1        0.0001
     32 C         142.5933  130.4640  156.1777 C.ar    1  UNL1        0.0039
     33 C         141.6149  131.2827  155.3888 C.ar    1  UNL1        0.0716
     34 C         141.6720  132.7805  155.4464 C.ar    1  UNL1        0.0084
     35 C         140.5792  130.6036  154.5425 C.3     1  UNL1        0.4186
     36 F         139.5436  129.9246  153.6961 F       1  UNL1       -0.1659
     37 F         140.3798  131.8728  153.7682 F       1  UNL1       -0.1659
     38 F         140.7787  129.3345  155.3167 F       1  UNL1       -0.1659
@<TRIPOS>BOND
     1     1     2    2
     2     2    24    1
     3    24    25    1
     4    25    26   am
     5    26    27    2
     6    26    29    1
     7    29    30   ar
     8    30    31   ar
     9    31    32   ar
    10    32    33   ar
    11    33    35    1
    12    35    36    1
    13    35    37    1
    14    35    38    1
    15    33    34   ar
    16     2     3   am
    17     5     3    1
    18     5     6    1
    19     6     7    1
    20     7     8    1
    21    10     8    1
    22    10    11    1
    23    11    12    1
    24    12    13    1
    25    13    14    1
    26    13    18    1
    27    18    19   ar
    28    19    20   ar
    29    20    21   ar
    30    21    22   ar
    31    22    23   ar
    32    13    15    1
    33    15    16    1
    34     8     9    1
    35    34    29   ar
    36     9     5    1
    37    16    10    1
    38    23    18   ar
    39    25    28    1
    40     3     4    1
    41    14    17    1
@<TRIPOS>MOLECULE
*****
 38 41 0 0 0
SMALL
GASTEIGER

@<TRIPOS>ATOM
      1 O         144.6943  143.0474  161.2760 O.2     1  UNL1       -0.2733
      2 C         143.7629  142.6362  162.3776 C.2     1  UNL1        0.2425
      3 N         142.3179  142.3687  162.0773 N.am    1  UNL1       -0.3032
      4 H         141.7066  142.0988  162.8003 H       1  UNL1        0.1495
      5 C         141.8041  142.5125  160.6753 C.3     1  UNL1        0.0889
      6 C         141.7890  141.4393  159.6274 C.3     1  UNL1        0.0383
      7 C         141.1908  142.0183  158.3796 C.3     1  UNL1        0.0738
      8 N         140.8362  143.4493  158.6563 N.3     1  UNL1       -0.2725
      9 C         141.2152  143.7547  160.0751 C.3     1  UNL1        0.0919
     10 C         140.2121  144.4067  157.6848 C.3     1  UNL1        0.0577
     11 C         139.0850  143.9540  156.8048 C.3     1  UNL1        0.0188
     12 C         138.4609  144.9114  155.8332 C.3     1  UNL1        0.0357
     13 C         138.9640  146.3216  155.7418 C.3     1  UNL1        0.1398
     14 O         137.8809  146.3637  154.7049 O.3     1  UNL1       -0.3796
     15 C         140.0912  146.7743  156.6219 C.3     1  UNL1        0.0357
     16 C         140.7152  145.8169  157.5934 C.3     1  UNL1        0.0188
     17 H         137.4524  145.4952  154.6495 H       1  UNL1        0.2108
     18 C         139.0909  147.7464  155.2902 C.ar    1  UNL1        0.1630
     19 N         139.8325  148.0696  154.0271 N.ar    1  UNL1       -0.2268
     20 C         139.9594  149.4944  153.5755 C.ar    1  UNL1        0.1019
     21 C         139.3447  150.5960  154.3871 C.ar    1  UNL1        0.0413
     22 C         138.6031  150.2727  155.6503 C.ar    1  UNL1        0.1019
     23 N         138.4763  148.8479  156.1018 N.ar    1  UNL1       -0.2268
     24 C         144.2766  142.4924  163.7795 C.3     1  UNL1        0.1759
     25 N         143.4210  141.8476  164.8294 N.am    1  UNL1       -0.2931
     26 C         143.4973  142.3176  166.2518 C.2     1  UNL1        0.2462
     27 O         144.4292  143.4323  166.6244 O.2     1  UNL1       -0.2701
     28 H         142.8093  141.1159  164.5849 H       1  UNL1        0.1502
     29 C         142.6417  141.6728  167.3017 C.ar    1  UNL1        0.0533
     30 C         142.6411  140.1808  167.4565 C.ar    1  UNL1        0.0045
     31 C         141.7855  139.5361  168.5064 C.ar    1  UNL1        0.0001
     32 C         140.9304  140.3834  169.4014 C.ar    1  UNL1        0.0039
     33 C         140.9310  141.8753  169.2466 C.ar    1  UNL1        0.0716
     34 C         141.7866  142.5200  168.1968 C.ar    1  UNL1        0.0084
     35 C         140.0760  142.7226  170.1417 C.3     1  UNL1        0.4186
     36 F         139.2210  143.5698  171.0367 F       1  UNL1       -0.1659
     37 F         141.0590  143.8485  170.0148 F       1  UNL1       -0.1659
     38 F         139.0931  141.5966  170.2685 F       1  UNL1       -0.1659
@<TRIPOS>BOND
     1     1     2    2
     2     2    24    1
     3    24    25    1
     4    25    26   am
     5    26    27    2
     6    26    29    1
     7    29    30   ar
     8    30    31   ar
     9    31    32   ar
    10    32    33   ar
    11    33    35    1
    12    35    36    1
    13    35    37    1
    14    35    38    1
    15    33    34   ar
    16     2     3   am
    17     5     3    1
    18     5     6    1
    19     6     7    1
    20     7     8    1
    21    10     8    1
    22    10    11    1
    23    11    12    1
    24    12    13    1
    25    13    14    1
    26    13    18    1
    27    18    19   ar
    28    19    20   ar
    29    20    21   ar
    30    21    22   ar
    31    22    23   ar
    32    13    15    1
    33    15    16    1
    34     8     9    1
    35    34    29   ar
    36     9     5    1
    37    16    10    1
    38    23    18   ar
    39    25    28    1
    40     3     4    1
    41    14    17    1
@<TRIPOS>MOLECULE
*****
 38 41 0 0 0
SMALL
GASTEIGER

@<TRIPOS>ATOM
      1 O         142.1690  137.7827  160.5444 O.2     1  UNL1       -0.2733
      2 C         141.5863  138.4066  159.3111 C.2     1  UNL1        0.2425
      3 N         140.3210  139.2070  159.4016 N.am    1  UNL1       -0.3032
      4 H         139.9386  139.6164  158.5921 H       1  UNL1        0.1495
      5 C         139.6382  139.3835  160.7256 C.3     1  UNL1        0.0889
      6 C         138.1568  139.3825  160.9607 C.3     1  UNL1        0.0383
      7 C         137.9201  139.5904  162.4272 C.3     1  UNL1        0.0738
      8 N         139.2553  139.7198  163.0985 N.3     1  UNL1       -0.2725
      9 C         140.3172  139.5919  162.0468 C.3     1  UNL1        0.0919
     10 C         139.4878  139.9387  164.5641 C.3     1  UNL1        0.0577
     11 C         138.6585  139.2013  165.5733 C.3     1  UNL1        0.0188
     12 C         138.8910  139.4202  167.0390 C.3     1  UNL1        0.0357
     13 C         139.9528  140.3764  167.4953 C.3     1  UNL1        0.1398
     14 O         139.4291  139.9155  168.8232 O.3     1  UNL1       -0.3796
     15 C         140.7821  141.1137  166.4861 C.3     1  UNL1        0.0357
     16 C         140.5496  140.8949  165.0205 C.3     1  UNL1        0.0188
     17 H         138.7151  139.2738  168.6842 H       1  UNL1        0.2108
     18 C         140.8327  141.1725  168.4129 C.ar    1  UNL1        0.1630
     19 N         142.1805  140.6438  168.8053 N.ar    1  UNL1       -0.2268
     20 C         143.0604  141.4400  169.7229 C.ar    1  UNL1        0.1019
     21 C         142.5925  142.7649  170.2481 C.ar    1  UNL1        0.0413
     22 C         141.2446  143.2935  169.8556 C.ar    1  UNL1        0.1019
     23 N         140.3648  142.4973  168.9381 N.ar    1  UNL1       -0.2268
     24 C         142.2690  138.2301  157.9871 C.3     1  UNL1        0.1759
     25 N         142.1252  136.9401  157.2352 N.am    1  UNL1       -0.2931
     26 C         143.1678  136.5341  156.2362 C.2     1  UNL1        0.2462
     27 O         144.3543  137.4180  155.9891 O.2     1  UNL1       -0.2701
     28 H         141.3465  136.3600  157.3973 H       1  UNL1        0.1502
     29 C         143.0240  135.2442  155.4842 C.ar    1  UNL1        0.0533
     30 C         142.3224  135.2230  154.1586 C.ar    1  UNL1        0.0045
     31 C         142.1787  133.9331  153.4067 C.ar    1  UNL1        0.0001
     32 C         142.7365  132.6643  153.9804 C.ar    1  UNL1        0.0039
     33 C         143.4380  132.6855  155.3060 C.ar    1  UNL1        0.0716
     34 C         143.5818  133.9754  156.0579 C.ar    1  UNL1        0.0084
     35 C         143.9958  131.4168  155.8797 C.3     1  UNL1        0.4186
     36 F         144.5536  130.1480  156.4534 F       1  UNL1       -0.1659
     37 F         145.3152  132.0959  156.0988 F       1  UNL1       -0.1659
     38 F         142.6764  130.7376  155.6606 F       1  UNL1       -0.1659
@<TRIPOS>BOND
     1     1     2    2
     2     2    24    1
     3    24    25    1
     4    25    26   am
     5    26    27    2
     6    26    29    1
     7    29    30   ar
     8    30    31   ar
     9    31    32   ar
    10    32    33   ar
    11    33    35    1
    12    35    36    1
    13    35    37    1
    14    35    38    1
    15    33    34   ar
    16     2     3   am
    17     5     3    1
    18     5     6    1
    19     6     7    1
    20     7     8    1
    21    10     8    1
    22    10    11    1
    23    11    12    1
    24    12    13    1
    25    13    14    1
    26    13    18    1
    27    18    19   ar
    28    19    20   ar
    29    20    21   ar
    30    21    22   ar
    31    22    23   ar
    32    13    15    1
    33    15    16    1
    34     8     9    1
    35    34    29   ar
    36     9     5    1
    37    16    10    1
    38    23    18   ar
    39    25    28    1
    40     3     4    1
    41    14    17    1
@<TRIPOS>MOLECULE
*****
 38 41 0 0 0
SMALL
GASTEIGER

@<TRIPOS>ATOM
      1 O         142.8951  140.1732  158.6305 O.2     1  UNL1       -0.2733
      2 C         142.4546  138.7756  158.3099 C.2     1  UNL1        0.2425
      3 N         141.6338  138.0025  159.2990 N.am    1  UNL1       -0.3032
      4 H         141.3447  137.0852  159.0886 H       1  UNL1        0.1495
      5 C         141.2535  138.6268  160.6089 C.3     1  UNL1        0.0889
      6 C         140.1511  139.6208  160.8247 C.3     1  UNL1        0.0383
      7 C         140.1252  139.9751  162.2821 C.3     1  UNL1        0.0738
      8 N         141.2117  139.2000  162.9669 N.3     1  UNL1       -0.2725
      9 C         141.9090  138.3668  161.9328 C.3     1  UNL1        0.0919
     10 C         141.5426  139.2495  164.4291 C.3     1  UNL1        0.0577
     11 C         142.7428  138.5170  164.9516 C.3     1  UNL1        0.0188
     12 C         143.0737  138.5665  166.4138 C.3     1  UNL1        0.0357
     13 C         142.2045  139.3486  167.3534 C.3     1  UNL1        0.1398
     14 O         143.2260  138.8244  168.3187 O.3     1  UNL1       -0.3796
     15 C         141.0044  140.0811  166.8309 C.3     1  UNL1        0.0357
     16 C         140.6734  140.0316  165.3688 C.3     1  UNL1        0.0188
     17 H         143.8745  138.2836  167.8413 H       1  UNL1        0.2108
     18 C         141.6901  139.9486  168.6284 C.ar    1  UNL1        0.1630
     19 N         142.6344  140.6408  169.5660 N.ar    1  UNL1       -0.2268
     20 C         142.1200  141.2408  170.8409 C.ar    1  UNL1        0.1019
     21 C         140.6612  141.1485  171.1782 C.ar    1  UNL1        0.0413
     22 C         139.7170  140.4563  170.2405 C.ar    1  UNL1        0.1019
     23 N         140.2315  139.8563  168.9656 N.ar    1  UNL1       -0.2268
     24 C         142.8348  138.1513  157.0001 C.3     1  UNL1        0.1759
     25 N         143.2550  136.7122  156.9491 N.am    1  UNL1       -0.2931
     26 C         142.3232  135.6781  156.3904 C.2     1  UNL1        0.2462
     27 O         140.9711  136.0830  155.8826 O.2     1  UNL1       -0.2701
     28 H         144.1425  136.4464  157.2824 H       1  UNL1        0.1502
     29 C         142.7434  134.2390  156.3394 C.ar    1  UNL1        0.0533
     30 C         144.0752  133.8265  156.8926 C.ar    1  UNL1        0.0045
     31 C         144.4953  132.3875  156.8416 C.ar    1  UNL1        0.0001
     32 C         143.5836  131.3610  156.2375 C.ar    1  UNL1        0.0039
     33 C         142.2518  131.7734  155.6843 C.ar    1  UNL1        0.0716
     34 C         141.8317  133.2124  155.7353 C.ar    1  UNL1        0.0084
     35 C         141.3401  130.7469  155.0802 C.3     1  UNL1        0.4186
     36 F         140.4284  129.7203  154.4761 F       1  UNL1       -0.1659
     37 F         140.2286  131.7536  155.0467 F       1  UNL1       -0.1659
     38 F         142.4515  129.7401  155.1136 F       1  UNL1       -0.1659
@<TRIPOS>BOND
     1     1     2    2
     2     2    24    1
     3    24    25    1
     4    25    26   am
     5    26    27    2
     6    26    29    1
     7    29    30   ar
     8    30    31   ar
     9    31    32   ar
    10    32    33   ar
    11    33    35    1
    12    35    36    1
    13    35    37    1
    14    35    38    1
    15    33    34   ar
    16     2     3   am
    17     5     3    1
    18     5     6    1
    19     6     7    1
    20     7     8    1
    21    10     8    1
    22    10    11    1
    23    11    12    1
    24    12    13    1
    25    13    14    1
    26    13    18    1
    27    18    19   ar
    28    19    20   ar
    29    20    21   ar
    30    21    22   ar
    31    22    23   ar
    32    13    15    1
    33    15    16    1
    34     8     9    1
    35    34    29   ar
    36     9     5    1
    37    16    10    1
    38    23    18   ar
    39    25    28    1
    40     3     4    1
    41    14    17    1
