@<TRIPOS>MOLECULE
*****
 35 39 0 0 0
SMALL
GASTEIGER

@<TRIPOS>ATOM
      1 C         140.8491  138.6031  159.9062 C.3     1  UNL1        0.1700
      2 O         140.8502  138.8621  158.4288 O.3     1  UNL1       -0.3793
      3 H         139.9359  138.9207  158.1101 H       1  UNL1        0.2106
      4 C         139.5495  138.4776  160.6447 C.3     1  UNL1        0.2358
      5 O         138.9481  139.6779  161.3137 O.3     1  UNL1       -0.4726
      6 C         138.7455  141.0296  163.5233 C.ar    1  UNL1        0.0874
      7 C         138.6065  141.0649  165.0164 C.ar    1  UNL1        0.0099
      8 C         138.5310  139.7839  165.7931 C.ar    1  UNL1        0.0300
      9 C         138.5945  138.4675  165.0767 C.ar    1  UNL1        0.1432
     10 F         138.5189  137.1865  165.8534 F       1  UNL1       -0.2041
     11 C         138.7335  138.4322  163.5835 C.ar    1  UNL1        0.0666
     12 C         138.8091  139.7132  162.8068 C.ar    1  UNL1        0.1452
     13 O         137.6730  142.7289  161.8764 O.2     1  UNL1       -0.2700
     14 C         138.8211  142.3106  162.7465 C.2     1  UNL1        0.2488
     15 N         140.0446  143.1732  162.8399 N.am    1  UNL1       -0.3024
     16 H         140.7981  142.8987  163.4109 H       1  UNL1        0.1497
     17 C         140.1202  144.4542  162.0632 C.3     1  UNL1        0.0720
     18 C         139.7380  145.8947  161.8930 C.3     1  UNL1        0.0213
     19 C         140.6332  145.2325  160.8880 C.3     1  UNL1        0.0213
     20 C         142.1476  138.4696  160.6452 C.3     1  UNL1        0.1056
     21 N         142.2442  138.9069  162.0769 N.3     1  UNL1       -0.2703
     22 C         142.1748  137.8905  163.1778 C.3     1  UNL1        0.0758
     23 C         142.2714  138.3279  164.6094 C.3     1  UNL1        0.0577
     24 C         142.4374  139.7816  164.9399 C.3     1  UNL1        0.1399
     25 C         142.5067  140.7979  163.8390 C.3     1  UNL1        0.0577
     26 C         142.4101  140.3606  162.4074 C.3     1  UNL1        0.0758
     27 C         142.6041  141.1924  165.4215 C.3     1  UNL1        0.0695
     28 C         142.6540  141.1676  166.9206 C.ar    1  UNL1        0.0161
     29 C         142.8056  142.2594  167.9379 C.ar    1  UNL1        0.0102
     30 C         142.8213  141.9251  169.4001 C.ar    1  UNL1        0.0576
     31 CL        142.9729  143.0168  170.4175 Cl      1  UNL1       -0.0823
     32 C         142.6855  140.4990  169.8450 C.ar    1  UNL1        0.0145
     33 C         142.5339  139.4072  168.8276 C.ar    1  UNL1        0.0374
     34 C         142.5181  139.7415  167.3654 C.ar    1  UNL1        0.1343
     35 O         142.3843  138.8849  166.1413 O.3     1  UNL1       -0.4825
@<TRIPOS>BOND
     1    13    14    2
     2    14    15   am
     3    15    17    1
     4    17    18    1
     5    18    19    1
     6    14     6    1
     7     6     7   ar
     8     7     8   ar
     9     8     9   ar
    10     9    10    1
    11     9    11   ar
    12    11    12   ar
    13    12     5    1
    14     5     4    1
    15     4     1    1
    16     1     2    1
    17     1    20    1
    18    20    21    1
    19    21    22    1
    20    22    23    1
    21    23    24    1
    22    24    25    1
    23    25    26    1
    24    24    27    1
    25    27    28    1
    26    28    29   ar
    27    29    30   ar
    28    30    31    1
    29    30    32   ar
    30    32    33   ar
    31    33    34   ar
    32    34    35    1
    33    19    17    1
    34    12     6   ar
    35    26    21    1
    36    34    28   ar
    37    35    24    1
    38    15    16    1
    39     2     3    1
@<TRIPOS>MOLECULE
*****
 35 39 0 0 0
SMALL
GASTEIGER

@<TRIPOS>ATOM
      1 C         141.9421  143.6206  160.0269 C.3     1  UNL1        0.1700
      2 O         141.8278  143.2353  158.5818 O.3     1  UNL1       -0.3793
      3 H         141.2858  143.8900  158.1145 H       1  UNL1        0.2106
      4 C         141.2641  144.8613  160.5282 C.3     1  UNL1        0.2358
      5 O         139.7725  144.8903  160.6834 O.3     1  UNL1       -0.4726
      6 C         138.4333  143.0322  161.9099 C.ar    1  UNL1        0.0874
      7 C         137.7988  142.4982  163.1597 C.ar    1  UNL1        0.0099
      8 C         137.8689  143.2881  164.4330 C.ar    1  UNL1        0.0300
      9 C         138.5736  144.6120  164.4564 C.ar    1  UNL1        0.1432
     10 F         138.6437  145.4019  165.7296 F       1  UNL1       -0.2041
     11 C         139.2081  145.1461  163.2065 C.ar    1  UNL1        0.0666
     12 C         139.1380  144.3562  161.9332 C.ar    1  UNL1        0.1452
     13 O         138.3497  140.7431  160.6839 O.2     1  UNL1       -0.2700
     14 C         138.3631  142.2423  160.6366 C.2     1  UNL1        0.2488
     15 N         138.3064  142.9516  159.3162 N.am    1  UNL1       -0.3024
     16 H         138.3152  143.9356  159.2852 H       1  UNL1        0.1497
     17 C         138.2362  142.1617  158.0429 C.3     1  UNL1        0.0720
     18 C         138.8413  141.1690  157.0951 C.3     1  UNL1        0.0213
     19 C         137.5096  141.7862  156.7856 C.3     1  UNL1        0.0213
     20 C         142.7342  142.7653  160.9708 C.3     1  UNL1        0.1056
     21 N         142.2333  142.5236  162.3640 N.3     1  UNL1       -0.2703
     22 C         142.4926  143.5356  163.4403 C.3     1  UNL1        0.0758
     23 C         141.9918  143.2938  164.8334 C.3     1  UNL1        0.0577
     24 C         141.2317  142.0401  165.1501 C.3     1  UNL1        0.1399
     25 C         140.9724  141.0281  164.0738 C.3     1  UNL1        0.0577
     26 C         141.4732  141.2698  162.6807 C.3     1  UNL1        0.0758
     27 C         140.4612  140.8396  165.6142 C.3     1  UNL1        0.0695
     28 C         140.1667  141.0140  167.0747 C.ar    1  UNL1        0.0161
     29 C         139.4387  140.1506  168.0619 C.ar    1  UNL1        0.0102
     30 C         139.2993  140.5953  169.4876 C.ar    1  UNL1        0.0576
     31 CL        138.5713  139.7319  170.4748 Cl      1  UNL1       -0.0823
     32 C         139.8878  141.9034  169.9262 C.ar    1  UNL1        0.0145
     33 C         140.6159  142.7669  168.9390 C.ar    1  UNL1        0.0374
     34 C         140.7553  142.3222  167.5133 C.ar    1  UNL1        0.1343
     35 O         141.4135  142.9563  166.3239 O.3     1  UNL1       -0.4825
@<TRIPOS>BOND
     1    13    14    2
     2    14    15   am
     3    15    17    1
     4    17    18    1
     5    18    19    1
     6    14     6    1
     7     6     7   ar
     8     7     8   ar
     9     8     9   ar
    10     9    10    1
    11     9    11   ar
    12    11    12   ar
    13    12     5    1
    14     5     4    1
    15     4     1    1
    16     1     2    1
    17     1    20    1
    18    20    21    1
    19    21    22    1
    20    22    23    1
    21    23    24    1
    22    24    25    1
    23    25    26    1
    24    24    27    1
    25    27    28    1
    26    28    29   ar
    27    29    30   ar
    28    30    31    1
    29    30    32   ar
    30    32    33   ar
    31    33    34   ar
    32    34    35    1
    33    19    17    1
    34    12     6   ar
    35    26    21    1
    36    34    28   ar
    37    35    24    1
    38    15    16    1
    39     2     3    1
@<TRIPOS>MOLECULE
*****
 35 39 0 0 0
SMALL
GASTEIGER

@<TRIPOS>ATOM
      1 C         138.8461  141.1985  159.6795 C.3     1  UNL1        0.1700
      2 O         139.9291  140.7290  158.7540 O.3     1  UNL1       -0.3793
      3 H         140.2129  141.4646  158.1889 H       1  UNL1        0.2106
      4 C         138.3761  142.6219  159.6229 C.3     1  UNL1        0.2358
      5 O         139.2064  143.7108  160.2350 O.3     1  UNL1       -0.4726
      6 C         140.7841  143.6197  162.2973 C.ar    1  UNL1        0.0874
      7 C         140.9836  143.6653  163.7832 C.ar    1  UNL1        0.0099
      8 C         139.8050  143.8477  164.6929 C.ar    1  UNL1        0.0300
      9 C         138.4269  143.9844  164.1168 C.ar    1  UNL1        0.1432
     10 F         137.2483  144.1668  165.0265 F       1  UNL1       -0.2041
     11 C         138.2273  143.9388  162.6307 C.ar    1  UNL1        0.0666
     12 C         139.4059  143.7565  161.7210 C.ar    1  UNL1        0.1452
     13 O         143.1884  144.2827  161.5694 O.2     1  UNL1       -0.2700
     14 C         141.9627  143.4373  161.3875 C.2     1  UNL1        0.2488
     15 N         141.9156  142.4097  160.2959 N.am    1  UNL1       -0.3024
     16 H         141.1112  141.8548  160.1765 H       1  UNL1        0.1497
     17 C         143.0942  142.2273  159.3862 C.3     1  UNL1        0.0720
     18 C         144.0982  141.3303  158.7248 C.3     1  UNL1        0.0213
     19 C         144.1316  142.8084  158.4719 C.3     1  UNL1        0.0213
     20 C         138.2331  140.2448  160.6615 C.3     1  UNL1        0.1056
     21 N         138.7490  140.1825  162.0687 N.3     1  UNL1       -0.2703
     22 C         140.1964  139.8836  162.3243 C.3     1  UNL1        0.0758
     23 C         140.7123  139.8213  163.7314 C.3     1  UNL1        0.0577
     24 C         139.7806  140.0581  164.8829 C.3     1  UNL1        0.1399
     25 C         138.3331  140.3570  164.6273 C.3     1  UNL1        0.0577
     26 C         137.8173  140.4193  163.2202 C.3     1  UNL1        0.0758
     27 C         138.9725  140.2717  166.1285 C.3     1  UNL1        0.0695
     28 C         139.8876  140.1169  167.3070 C.ar    1  UNL1        0.0161
     29 C         139.6476  140.2177  168.7842 C.ar    1  UNL1        0.0102
     30 C         140.7811  140.0091  169.7442 C.ar    1  UNL1        0.0576
     31 CL        140.5411  140.1099  171.2214 Cl      1  UNL1       -0.0823
     32 C         142.1547  139.6999  169.2270 C.ar    1  UNL1        0.0145
     33 C         142.3948  139.5991  167.7497 C.ar    1  UNL1        0.0374
     34 C         141.2613  139.8076  166.7897 C.ar    1  UNL1        0.1343
     35 O         141.1951  139.7713  165.2916 O.3     1  UNL1       -0.4825
@<TRIPOS>BOND
     1    13    14    2
     2    14    15   am
     3    15    17    1
     4    17    18    1
     5    18    19    1
     6    14     6    1
     7     6     7   ar
     8     7     8   ar
     9     8     9   ar
    10     9    10    1
    11     9    11   ar
    12    11    12   ar
    13    12     5    1
    14     5     4    1
    15     4     1    1
    16     1     2    1
    17     1    20    1
    18    20    21    1
    19    21    22    1
    20    22    23    1
    21    23    24    1
    22    24    25    1
    23    25    26    1
    24    24    27    1
    25    27    28    1
    26    28    29   ar
    27    29    30   ar
    28    30    31    1
    29    30    32   ar
    30    32    33   ar
    31    33    34   ar
    32    34    35    1
    33    19    17    1
    34    12     6   ar
    35    26    21    1
    36    34    28   ar
    37    35    24    1
    38    15    16    1
    39     2     3    1
@<TRIPOS>MOLECULE
*****
 35 39 0 0 0
SMALL
GASTEIGER

@<TRIPOS>ATOM
      1 C         138.2598  140.8005  160.1014 C.3     1  UNL1        0.1700
      2 O         138.4602  141.0520  158.6363 O.3     1  UNL1       -0.3793
      3 H         138.2708  140.2403  158.1400 H       1  UNL1        0.2106
      4 C         137.8292  139.4448  160.5776 C.3     1  UNL1        0.2358
      5 O         138.8201  138.3201  160.6345 O.3     1  UNL1       -0.4726
      6 C         141.0346  137.9771  161.9492 C.ar    1  UNL1        0.0874
      7 C         141.7499  137.6720  163.2318 C.ar    1  UNL1        0.0099
      8 C         140.9660  137.4049  164.4825 C.ar    1  UNL1        0.0300
      9 C         139.4669  137.4428  164.4505 C.ar    1  UNL1        0.1432
     10 F         138.6830  137.1757  165.7012 F       1  UNL1       -0.2041
     11 C         138.7515  137.7479  163.1679 C.ar    1  UNL1        0.0666
     12 C         139.5354  138.0151  161.9172 C.ar    1  UNL1        0.1452
     13 O         143.0295  137.4178  160.3815 O.2     1  UNL1       -0.2700
     14 C         141.8184  138.2443  160.6985 C.2     1  UNL1        0.2488
     15 N         141.3913  139.3377  159.7648 N.am    1  UNL1       -0.3024
     16 H         140.5964  139.8801  159.9729 H       1  UNL1        0.1497
     17 C         142.1751  139.6049  158.5142 C.3     1  UNL1        0.0720
     18 C         143.4904  139.6834  157.7973 C.3     1  UNL1        0.0213
     19 C         142.2175  139.9891  157.0648 C.3     1  UNL1        0.0213
     20 C         138.4900  141.9045  161.0903 C.3     1  UNL1        0.1056
     21 N         138.9383  141.5811  162.4847 N.3     1  UNL1       -0.2703
     22 C         137.9232  141.3638  163.5675 C.3     1  UNL1        0.0758
     23 C         138.3716  141.0404  164.9618 C.3     1  UNL1        0.0577
     24 C         139.8350  140.9342  165.2735 C.3     1  UNL1        0.1399
     25 C         140.8501  141.1514  164.1907 C.3     1  UNL1        0.0577
     26 C         140.4018  141.4749  162.7964 C.3     1  UNL1        0.0758
     27 C         141.2562  140.7959  165.7329 C.3     1  UNL1        0.0695
     28 C         141.2404  140.4684  167.1967 C.ar    1  UNL1        0.0161
     29 C         142.3441  140.2204  168.1817 C.ar    1  UNL1        0.0102
     30 C         142.0169  139.9082  169.6119 C.ar    1  UNL1        0.0576
     31 CL        143.1206  139.6601  170.5969 Cl      1  UNL1       -0.0823
     32 C         140.5860  139.8441  170.0571 C.ar    1  UNL1        0.0145
     33 C         139.4822  140.0922  169.0721 C.ar    1  UNL1        0.0374
     34 C         139.8094  140.4043  167.6419 C.ar    1  UNL1        0.1343
     35 O         138.9408  140.6922  166.4533 O.3     1  UNL1       -0.4825
@<TRIPOS>BOND
     1    13    14    2
     2    14    15   am
     3    15    17    1
     4    17    18    1
     5    18    19    1
     6    14     6    1
     7     6     7   ar
     8     7     8   ar
     9     8     9   ar
    10     9    10    1
    11     9    11   ar
    12    11    12   ar
    13    12     5    1
    14     5     4    1
    15     4     1    1
    16     1     2    1
    17     1    20    1
    18    20    21    1
    19    21    22    1
    20    22    23    1
    21    23    24    1
    22    24    25    1
    23    25    26    1
    24    24    27    1
    25    27    28    1
    26    28    29   ar
    27    29    30   ar
    28    30    31    1
    29    30    32   ar
    30    32    33   ar
    31    33    34   ar
    32    34    35    1
    33    19    17    1
    34    12     6   ar
    35    26    21    1
    36    34    28   ar
    37    35    24    1
    38    15    16    1
    39     2     3    1
@<TRIPOS>MOLECULE
*****
 35 39 0 0 0
SMALL
GASTEIGER

@<TRIPOS>ATOM
      1 C         138.2827  140.4161  159.6100 C.3     1  UNL1        0.1700
      2 O         137.4331  140.3950  158.3740 O.3     1  UNL1       -0.3793
      3 H         137.5001  141.2501  157.9209 H       1  UNL1        0.2106
      4 C         139.0628  141.6479  159.9629 C.3     1  UNL1        0.2358
      5 O         138.3434  142.9094  160.3383 O.3     1  UNL1       -0.4726
      6 C         139.8073  144.5272  161.7488 C.ar    1  UNL1        0.0874
      7 C         140.1090  145.2026  163.0536 C.ar    1  UNL1        0.0099
      8 C         139.2484  144.9358  164.2529 C.ar    1  UNL1        0.0300
      9 C         138.0861  143.9936  164.1472 C.ar    1  UNL1        0.1432
     10 F         137.2255  143.7268  165.3465 F       1  UNL1       -0.2041
     11 C         137.7844  143.3180  162.8423 C.ar    1  UNL1        0.0666
     12 C         138.6450  143.5848  161.6431 C.ar    1  UNL1        0.1452
     13 O         142.1566  144.6351  160.6444 O.2     1  UNL1       -0.2700
     14 C         140.6680  144.7939  160.5495 C.2     1  UNL1        0.2488
     15 N         140.0401  145.2196  159.2555 N.am    1  UNL1       -0.3024
     16 H         139.0631  145.3238  159.1933 H       1  UNL1        0.1497
     17 C         140.9007  145.4864  158.0563 C.3     1  UNL1        0.0720
     18 C         141.1397  145.3799  156.5793 C.3     1  UNL1        0.0213
     19 C         142.1523  146.0550  157.4562 C.3     1  UNL1        0.0213
     20 C         138.3523  139.2057  160.4931 C.3     1  UNL1        0.1056
     21 N         138.8623  139.3307  161.8982 N.3     1  UNL1       -0.2703
     22 C         140.3045  139.0505  162.2004 C.3     1  UNL1        0.0758
     23 C         140.8144  139.1755  163.6055 C.3     1  UNL1        0.0577
     24 C         139.8820  139.5807  164.7084 C.3     1  UNL1        0.1399
     25 C         138.4397  139.8609  164.4063 C.3     1  UNL1        0.0577
     26 C         137.9299  139.7359  163.0012 C.3     1  UNL1        0.0758
     27 C         139.0725  139.9744  165.9084 C.3     1  UNL1        0.0695
     28 C         139.9811  139.9710  167.1019 C.ar    1  UNL1        0.0161
     29 C         139.7372  140.2771  168.5499 C.ar    1  UNL1        0.0102
     30 C         140.8643  140.1875  169.5357 C.ar    1  UNL1        0.0576
     31 CL        140.6204  140.4936  170.9837 Cl      1  UNL1       -0.0823
     32 C         142.2353  139.7918  169.0734 C.ar    1  UNL1        0.0145
     33 C         142.4793  139.4856  167.6253 C.ar    1  UNL1        0.0374
     34 C         141.3522  139.5752  166.6396 C.ar    1  UNL1        0.1343
     35 O         141.2909  139.3340  165.1604 O.3     1  UNL1       -0.4825
@<TRIPOS>BOND
     1    13    14    2
     2    14    15   am
     3    15    17    1
     4    17    18    1
     5    18    19    1
     6    14     6    1
     7     6     7   ar
     8     7     8   ar
     9     8     9   ar
    10     9    10    1
    11     9    11   ar
    12    11    12   ar
    13    12     5    1
    14     5     4    1
    15     4     1    1
    16     1     2    1
    17     1    20    1
    18    20    21    1
    19    21    22    1
    20    22    23    1
    21    23    24    1
    22    24    25    1
    23    25    26    1
    24    24    27    1
    25    27    28    1
    26    28    29   ar
    27    29    30   ar
    28    30    31    1
    29    30    32   ar
    30    32    33   ar
    31    33    34   ar
    32    34    35    1
    33    19    17    1
    34    12     6   ar
    35    26    21    1
    36    34    28   ar
    37    35    24    1
    38    15    16    1
    39     2     3    1
@<TRIPOS>MOLECULE
*****
 35 39 0 0 0
SMALL
GASTEIGER

@<TRIPOS>ATOM
      1 C         141.1200  142.7463  159.1919 C.3     1  UNL1        0.1700
      2 O         141.1542  142.0444  157.8667 O.3     1  UNL1       -0.3793
      3 H         140.3974  142.3286  157.3307 H       1  UNL1        0.2106
      4 C         140.0174  143.7160  159.4988 C.3     1  UNL1        0.2358
      5 O         138.6148  143.2204  159.6912 O.3     1  UNL1       -0.4726
      6 C         138.0851  140.9568  160.8512 C.ar    1  UNL1        0.0874
      7 C         137.7261  140.1817  162.0842 C.ar    1  UNL1        0.0099
      8 C         137.5377  140.8951  163.3902 C.ar    1  UNL1        0.0300
      9 C         137.7084  142.3835  163.4632 C.ar    1  UNL1        0.1432
     10 F         137.5200  143.0968  164.7692 F       1  UNL1       -0.2041
     11 C         138.0674  143.1587  162.2302 C.ar    1  UNL1        0.0666
     12 C         138.2558  142.4453  160.9242 C.ar    1  UNL1        0.1452
     13 O         137.1649  140.2236  158.5348 O.2     1  UNL1       -0.2700
     14 C         138.2734  140.2435  159.5452 C.2     1  UNL1        0.2488
     15 N         139.5702  139.5500  159.2496 N.am    1  UNL1       -0.3024
     16 H         140.2977  139.5631  159.9128 H       1  UNL1        0.1497
     17 C         139.7586  138.8367  157.9436 C.3     1  UNL1        0.0720
     18 C         140.1762  137.6158  157.1787 C.3     1  UNL1        0.0213
     19 C         139.6672  138.8220  156.4465 C.3     1  UNL1        0.0213
     20 C         142.1883  142.4786  160.2102 C.3     1  UNL1        0.1056
     21 N         141.8211  142.3019  161.6539 N.3     1  UNL1       -0.2703
     22 C         141.4672  140.9412  162.1766 C.3     1  UNL1        0.0758
     23 C         141.1000  140.7646  163.6202 C.3     1  UNL1        0.0577
     24 C         141.0868  141.9486  164.5410 C.3     1  UNL1        0.1399
     25 C         141.4407  143.3093  164.0182 C.3     1  UNL1        0.0577
     26 C         141.8079  143.4859  162.5747 C.3     1  UNL1        0.0758
     27 C         141.0301  143.0334  165.5755 C.3     1  UNL1        0.0695
     28 C         140.6200  142.4114  166.8775 C.ar    1  UNL1        0.0161
     29 C         140.4004  142.9930  168.2425 C.ar    1  UNL1        0.0102
     30 C         139.9840  142.1054  169.3778 C.ar    1  UNL1        0.0576
     31 CL        139.7644  142.6870  170.7429 Cl      1  UNL1       -0.0823
     32 C         139.7874  140.6362  169.1480 C.ar    1  UNL1        0.0145
     33 C         140.0070  140.0546  167.7829 C.ar    1  UNL1        0.0374
     34 C         140.4234  140.9421  166.6476 C.ar    1  UNL1        0.1343
     35 O         140.7118  140.6562  165.2037 O.3     1  UNL1       -0.4825
@<TRIPOS>BOND
     1    13    14    2
     2    14    15   am
     3    15    17    1
     4    17    18    1
     5    18    19    1
     6    14     6    1
     7     6     7   ar
     8     7     8   ar
     9     8     9   ar
    10     9    10    1
    11     9    11   ar
    12    11    12   ar
    13    12     5    1
    14     5     4    1
    15     4     1    1
    16     1     2    1
    17     1    20    1
    18    20    21    1
    19    21    22    1
    20    22    23    1
    21    23    24    1
    22    24    25    1
    23    25    26    1
    24    24    27    1
    25    27    28    1
    26    28    29   ar
    27    29    30   ar
    28    30    31    1
    29    30    32   ar
    30    32    33   ar
    31    33    34   ar
    32    34    35    1
    33    19    17    1
    34    12     6   ar
    35    26    21    1
    36    34    28   ar
    37    35    24    1
    38    15    16    1
    39     2     3    1
@<TRIPOS>MOLECULE
*****
 35 39 0 0 0
SMALL
GASTEIGER

@<TRIPOS>ATOM
      1 C         138.0399  140.4369  160.5194 C.3     1  UNL1        0.1700
      2 O         136.6720  140.0233  160.9752 O.3     1  UNL1       -0.3793
      3 H         136.4583  139.1517  160.6071 H       1  UNL1        0.2106
      4 C         138.8391  139.5321  159.6290 C.3     1  UNL1        0.2358
      5 O         139.7020  138.4614  160.2281 O.3     1  UNL1       -0.4726
      6 C         141.7938  138.4616  161.7691 C.ar    1  UNL1        0.0874
      7 C         143.2605  138.7044  161.9683 C.ar    1  UNL1        0.0099
      8 C         144.1023  139.1899  160.8256 C.ar    1  UNL1        0.0300
      9 C         143.4773  139.4325  159.4838 C.ar    1  UNL1        0.1432
     10 F         144.3191  139.9180  158.3411 F       1  UNL1       -0.2041
     11 C         142.0105  139.1897  159.2846 C.ar    1  UNL1        0.0666
     12 C         141.1687  138.7042  160.4273 C.ar    1  UNL1        0.1452
     13 O         141.1385  136.5858  163.4431 O.2     1  UNL1       -0.2700
     14 C         140.9520  137.9761  162.9118 C.2     1  UNL1        0.2488
     15 N         139.9237  138.8810  163.5232 N.am    1  UNL1       -0.3024
     16 H         139.8013  139.7935  163.1745 H       1  UNL1        0.1497
     17 C         139.0819  138.3955  164.6659 C.3     1  UNL1        0.0720
     18 C         138.2305  138.6843  165.8666 C.3     1  UNL1        0.0213
     19 C         138.4753  137.2659  165.4444 C.3     1  UNL1        0.0213
     20 C         138.6085  141.7551  160.9539 C.3     1  UNL1        0.1056
     21 N         139.2296  141.8929  162.3123 N.3     1  UNL1       -0.2703
     22 C         138.3597  142.0907  163.5182 C.3     1  UNL1        0.0758
     23 C         138.9808  142.2285  164.8765 C.3     1  UNL1        0.0577
     24 C         140.4718  142.1685  165.0290 C.3     1  UNL1        0.1399
     25 C         141.3417  141.9707  163.8232 C.3     1  UNL1        0.0577
     26 C         140.7206  141.8329  162.4648 C.3     1  UNL1        0.0758
     27 C         141.9397  142.1290  165.3355 C.3     1  UNL1        0.0695
     28 C         142.1092  142.3061  166.8154 C.ar    1  UNL1        0.0161
     29 C         143.3286  142.3510  167.6877 C.ar    1  UNL1        0.0102
     30 C         143.1850  142.5447  169.1682 C.ar    1  UNL1        0.0576
     31 CL        144.4044  142.5896  170.0405 Cl      1  UNL1       -0.0823
     32 C         141.8219  142.6935  169.7764 C.ar    1  UNL1        0.0145
     33 C         140.6024  142.6486  168.9040 C.ar    1  UNL1        0.0374
     34 C         140.7461  142.4549  167.4236 C.ar    1  UNL1        0.1343
     35 O         139.7342  142.3699  166.3196 O.3     1  UNL1       -0.4825
@<TRIPOS>BOND
     1    13    14    2
     2    14    15   am
     3    15    17    1
     4    17    18    1
     5    18    19    1
     6    14     6    1
     7     6     7   ar
     8     7     8   ar
     9     8     9   ar
    10     9    10    1
    11     9    11   ar
    12    11    12   ar
    13    12     5    1
    14     5     4    1
    15     4     1    1
    16     1     2    1
    17     1    20    1
    18    20    21    1
    19    21    22    1
    20    22    23    1
    21    23    24    1
    22    24    25    1
    23    25    26    1
    24    24    27    1
    25    27    28    1
    26    28    29   ar
    27    29    30   ar
    28    30    31    1
    29    30    32   ar
    30    32    33   ar
    31    33    34   ar
    32    34    35    1
    33    19    17    1
    34    12     6   ar
    35    26    21    1
    36    34    28   ar
    37    35    24    1
    38    15    16    1
    39     2     3    1
@<TRIPOS>MOLECULE
*****
 35 39 0 0 0
SMALL
GASTEIGER

@<TRIPOS>ATOM
      1 C         142.9877  141.0526  159.7468 C.3     1  UNL1        0.1700
      2 O         142.0732  140.8623  158.5731 O.3     1  UNL1       -0.3793
      3 H         142.2021  141.5875  157.9419 H       1  UNL1        0.2106
      4 C         143.9079  142.2361  159.7964 C.3     1  UNL1        0.2358
      5 O         143.3448  143.6183  159.9461 O.3     1  UNL1       -0.4726
      6 C         141.3641  144.3420  161.4637 C.ar    1  UNL1        0.0874
      7 C         140.8482  144.8015  162.7950 C.ar    1  UNL1        0.0099
      8 C         141.7970  144.9969  163.9403 C.ar    1  UNL1        0.0300
      9 C         143.2618  144.7328  163.7541 C.ar    1  UNL1        0.1432
     10 F         144.2106  144.9282  164.8993 F       1  UNL1       -0.2041
     11 C         143.7777  144.2732  162.4226 C.ar    1  UNL1        0.0666
     12 C         142.8289  144.0778  161.2774 C.ar    1  UNL1        0.1452
     13 O         139.8602  145.3364  159.5929 O.2     1  UNL1       -0.2700
     14 C         140.4152  144.1466  160.3185 C.2     1  UNL1        0.2488
     15 N         140.0213  142.7614  159.8988 N.am    1  UNL1       -0.3024
     16 H         140.3856  141.9805  160.3749 H       1  UNL1        0.1497
     17 C         139.0725  142.5661  158.7536 C.3     1  UNL1        0.0720
     18 C         138.4176  143.0821  157.5067 C.3     1  UNL1        0.0213
     19 C         138.0840  141.7116  158.0169 C.3     1  UNL1        0.0213
     20 C         142.9819  140.0594  160.8708 C.3     1  UNL1        0.1056
     21 N         142.7556  140.5223  162.2796 N.3     1  UNL1       -0.2703
     22 C         143.9088  140.6090  163.2349 C.3     1  UNL1        0.0758
     23 C         143.6825  141.0719  164.6435 C.3     1  UNL1        0.0577
     24 C         142.3030  141.4481  165.0970 C.3     1  UNL1        0.1399
     25 C         141.1499  141.3614  164.1417 C.3     1  UNL1        0.0577
     26 C         141.3762  140.8985  162.7330 C.3     1  UNL1        0.0758
     27 C         140.9871  141.8554  165.6906 C.3     1  UNL1        0.0695
     28 C         141.2237  142.2440  167.1200 C.ar    1  UNL1        0.0161
     29 C         140.2967  142.7285  168.1951 C.ar    1  UNL1        0.0102
     30 C         140.8318  143.0458  169.5599 C.ar    1  UNL1        0.0576
     31 CL        139.9048  143.5303  170.6350 Cl      1  UNL1       -0.0823
     32 C         142.2940  142.8787  169.8497 C.ar    1  UNL1        0.0145
     33 C         143.2212  142.3942  168.7746 C.ar    1  UNL1        0.0374
     34 C         142.6860  142.0769  167.4097 C.ar    1  UNL1        0.1343
     35 O         143.3530  141.5850  166.1595 O.3     1  UNL1       -0.4825
@<TRIPOS>BOND
     1    13    14    2
     2    14    15   am
     3    15    17    1
     4    17    18    1
     5    18    19    1
     6    14     6    1
     7     6     7   ar
     8     7     8   ar
     9     8     9   ar
    10     9    10    1
    11     9    11   ar
    12    11    12   ar
    13    12     5    1
    14     5     4    1
    15     4     1    1
    16     1     2    1
    17     1    20    1
    18    20    21    1
    19    21    22    1
    20    22    23    1
    21    23    24    1
    22    24    25    1
    23    25    26    1
    24    24    27    1
    25    27    28    1
    26    28    29   ar
    27    29    30   ar
    28    30    31    1
    29    30    32   ar
    30    32    33   ar
    31    33    34   ar
    32    34    35    1
    33    19    17    1
    34    12     6   ar
    35    26    21    1
    36    34    28   ar
    37    35    24    1
    38    15    16    1
    39     2     3    1
@<TRIPOS>MOLECULE
*****
 35 39 0 0 0
SMALL
GASTEIGER

@<TRIPOS>ATOM
      1 C         141.5806  143.8681  159.9762 C.3     1  UNL1        0.1700
      2 O         141.8723  145.3388  160.0204 O.3     1  UNL1       -0.3793
      3 H         142.7061  145.5171  159.5580 H       1  UNL1        0.2106
      4 C         142.5300  142.9357  159.2837 C.3     1  UNL1        0.2358
      5 O         143.5884  142.2219  160.0713 O.3     1  UNL1       -0.4726
      6 C         143.7897  140.1505  161.6265 C.ar    1  UNL1        0.0874
      7 C         143.6986  138.6676  161.8334 C.ar    1  UNL1        0.0099
      8 C         143.3150  137.7733  160.6919 C.ar    1  UNL1        0.0300
      9 C         143.0226  138.3618  159.3435 C.ar    1  UNL1        0.1432
     10 F         142.6390  137.4675  158.2020 F       1  UNL1       -0.2041
     11 C         143.1137  139.8447  159.1366 C.ar    1  UNL1        0.0666
     12 C         143.4973  140.7390  160.2781 C.ar    1  UNL1        0.1452
     13 O         145.1827  140.5824  163.7767 O.2     1  UNL1       -0.2700
     14 C         144.1733  141.0448  162.7680 C.2     1  UNL1        0.2488
     15 N         143.5475  142.4015  162.9009 N.am    1  UNL1       -0.3024
     16 H         142.8850  142.7050  162.2389 H       1  UNL1        0.1497
     17 C         143.9311  143.2958  164.0424 C.3     1  UNL1        0.0720
     18 C         144.4668  143.4705  165.4326 C.3     1  UNL1        0.0213
     19 C         144.0597  144.6702  164.6294 C.3     1  UNL1        0.0213
     20 C         140.3397  143.3297  160.6244 C.3     1  UNL1        0.1056
     21 N         140.3259  143.0449  162.0971 N.3     1  UNL1       -0.2703
     22 C         140.3941  144.1756  163.0803 C.3     1  UNL1        0.0758
     23 C         140.3803  143.8908  164.5529 C.3     1  UNL1        0.0577
     24 C         140.2983  142.4752  165.0423 C.3     1  UNL1        0.1399
     25 C         140.2302  141.3445  164.0591 C.3     1  UNL1        0.0577
     26 C         140.2440  141.6293  162.5865 C.3     1  UNL1        0.0758
     27 C         140.2201  141.1184  165.6772 C.3     1  UNL1        0.0695
     28 C         140.2338  141.3018  167.1660 C.ar    1  UNL1        0.0161
     29 C         140.1786  140.3202  168.2988 C.ar    1  UNL1        0.0102
     30 C         140.2099  140.8085  169.7167 C.ar    1  UNL1        0.0576
     31 CL        140.1547  139.8269  170.8494 Cl      1  UNL1       -0.0823
     32 C         140.2966  142.2786  170.0018 C.ar    1  UNL1        0.0145
     33 C         140.3518  143.2604  168.8691 C.ar    1  UNL1        0.0374
     34 C         140.3205  142.7720  167.4511 C.ar    1  UNL1        0.1343
     35 O         140.3603  143.4971  166.1387 O.3     1  UNL1       -0.4825
@<TRIPOS>BOND
     1    13    14    2
     2    14    15   am
     3    15    17    1
     4    17    18    1
     5    18    19    1
     6    14     6    1
     7     6     7   ar
     8     7     8   ar
     9     8     9   ar
    10     9    10    1
    11     9    11   ar
    12    11    12   ar
    13    12     5    1
    14     5     4    1
    15     4     1    1
    16     1     2    1
    17     1    20    1
    18    20    21    1
    19    21    22    1
    20    22    23    1
    21    23    24    1
    22    24    25    1
    23    25    26    1
    24    24    27    1
    25    27    28    1
    26    28    29   ar
    27    29    30   ar
    28    30    31    1
    29    30    32   ar
    30    32    33   ar
    31    33    34   ar
    32    34    35    1
    33    19    17    1
    34    12     6   ar
    35    26    21    1
    36    34    28   ar
    37    35    24    1
    38    15    16    1
    39     2     3    1
