@<TRIPOS>MOLECULE
*****
 35 38 0 0 0
SMALL
GASTEIGER

@<TRIPOS>ATOM
      1 C         141.7391  143.2051  163.3051 C.ar    1  UNL1        0.0193
      2 C         141.5636  142.0613  164.2596 C.ar    1  UNL1        0.1518
      3 N         141.1872  140.8470  163.4636 N.ar    1  UNL1       -0.1608
      4 N         141.1300  141.2402  162.0172 N.ar    1  UNL1       -0.2290
      5 C         141.4711  142.6976  161.9193 C.ar    1  UNL1        0.0804
      6 C         140.7912  140.3349  160.8701 C.ar    1  UNL1        0.0933
      7 C         141.8286  139.4018  160.3194 C.ar    1  UNL1        0.0209
      8 C         141.4898  138.4965  159.1724 C.ar    1  UNL1        0.0130
      9 C         140.1138  138.5244  158.5760 C.ar    1  UNL1        0.0586
     10 CL        139.7751  137.6192  157.4289 Cl      1  UNL1       -0.0822
     11 C         139.0765  139.4576  159.1266 C.ar    1  UNL1        0.0243
     12 C         139.4152  140.3629  160.2737 C.ar    1  UNL1        0.0761
     13 CL        138.3779  141.2960  160.8243 Cl      1  UNL1       -0.0806
     14 C         141.5333  143.5057  160.6571 C.ar    1  UNL1        0.0175
     15 C         142.6238  143.2538  159.6583 C.ar    1  UNL1        0.0020
     16 C         142.6861  144.0619  158.3962 C.ar    1  UNL1        0.0067
     17 C         141.6579  145.1219  158.1327 C.ar    1  UNL1        0.0346
     18 BR        141.7202  145.9300  156.8705 Br      1  UNL1       -0.0490
     19 C         140.5675  145.3737  159.1314 C.ar    1  UNL1        0.0067
     20 C         140.5053  144.5657  160.3936 C.ar    1  UNL1        0.0020
     21 C         141.7345  142.1213  165.7486 C.2     1  UNL1        0.2653
     22 O         143.0554  142.5210  166.3365 O.2     1  UNL1       -0.2684
     23 N         140.5845  141.7817  166.6498 N.am    1  UNL1       -0.2963
     24 H         139.7175  141.5194  166.2640 H       1  UNL1        0.1501
     25 C         140.7554  141.8418  168.1388 C.3     1  UNL1        0.1108
     26 C         141.1433  140.3929  168.1527 C.3     1  UNL1        0.0275
     27 C         140.3674  143.2907  168.1249 C.3     1  UNL1        0.0275
     28 C         140.9263  141.9018  169.6278 C.ar    1  UNL1        0.1767
     29 N         139.8364  141.7497  170.6473 N.ar    1  UNL1       -0.1111
     30 N         140.4536  141.8784  172.0084 N.ar    1  UNL1       -0.0229
     31 N         141.9249  142.1100  171.8302 N.ar    1  UNL1       -0.0431
     32 N         142.2170  142.1245  170.3589 N.ar    1  UNL1       -0.2134
     33 C         143.5635  142.3262  169.7293 C.3     1  UNL1        0.1570
     34 C         143.5549  145.0330  163.6389 C.3     1  UNL1        0.0051
     35 C         142.1163  144.6098  163.6722 C.3     1  UNL1        0.0296
@<TRIPOS>BOND
     1    34    35    1
     2    35     1    1
     3     1     2   ar
     4     2    21    1
     5    21    22    2
     6    21    23   am
     7    23    25    1
     8    25    26    1
     9    25    27    1
    10    25    28    1
    11    28    29   ar
    12    29    30   ar
    13    30    31   ar
    14    31    32   ar
    15    32    33    1
    16     2     3   ar
    17     3     4   ar
    18     4     6    1
    19     6     7   ar
    20     7     8   ar
    21     8     9   ar
    22     9    10    1
    23     9    11   ar
    24    11    12   ar
    25    12    13    1
    26     4     5   ar
    27     5    14    1
    28    14    15   ar
    29    15    16   ar
    30    16    17   ar
    31    17    18    1
    32    17    19   ar
    33    19    20   ar
    34     5     1   ar
    35    20    14   ar
    36    32    28   ar
    37    12     6   ar
    38    23    24    1
@<TRIPOS>MOLECULE
*****
 35 38 0 0 0
SMALL
GASTEIGER

@<TRIPOS>ATOM
      1 C         141.7608  143.1971  163.3062 C.ar    1  UNL1        0.0193
      2 C         141.5800  142.0564  164.2635 C.ar    1  UNL1        0.1518
      3 N         141.2024  140.8408  163.4699 N.ar    1  UNL1       -0.1608
      4 N         141.1498  141.2302  162.0223 N.ar    1  UNL1       -0.2290
      5 C         141.4949  142.6864  161.9211 C.ar    1  UNL1        0.0804
      6 C         140.8114  140.3226  160.8769 C.ar    1  UNL1        0.0933
      7 C         139.3918  140.2056  160.4068 C.ar    1  UNL1        0.0209
      8 C         139.0534  139.2981  159.2614 C.ar    1  UNL1        0.0130
      9 C         140.1346  138.5076  158.5862 C.ar    1  UNL1        0.0586
     10 CL        139.7963  137.6000  157.4408 Cl      1  UNL1       -0.0822
     11 C         141.5543  138.6246  159.0563 C.ar    1  UNL1        0.0243
     12 C         141.8926  139.5321  160.2017 C.ar    1  UNL1        0.0761
     13 CL        143.3123  139.6491  160.6718 Cl      1  UNL1       -0.0806
     14 C         141.5623  143.4909  160.6569 C.ar    1  UNL1        0.0175
     15 C         140.5288  144.5426  160.3812 C.ar    1  UNL1        0.0020
     16 C         140.5962  145.3470  159.1169 C.ar    1  UNL1        0.0067
     17 C         141.6970  145.0998  158.1283 C.ar    1  UNL1        0.0346
     18 BR        141.7644  145.9042  156.8641 Br      1  UNL1       -0.0490
     19 C         142.7304  144.0481  158.4041 C.ar    1  UNL1        0.0067
     20 C         142.6630  143.2437  159.6683 C.ar    1  UNL1        0.0020
     21 C         141.7475  142.1202  165.7527 C.2     1  UNL1        0.2653
     22 O         143.0709  142.5082  166.3427 O.2     1  UNL1       -0.2684
     23 N         140.5916  141.7959  166.6520 N.am    1  UNL1       -0.2963
     24 H         139.7230  141.5411  166.2647 H       1  UNL1        0.1501
     25 C         140.7590  141.8596  168.1412 C.3     1  UNL1        0.1108
     26 C         141.1541  140.4127  168.1587 C.3     1  UNL1        0.0275
     27 C         140.3640  143.3065  168.1237 C.3     1  UNL1        0.0275
     28 C         140.9265  141.9234  169.6304 C.ar    1  UNL1        0.1767
     29 N         139.8342  141.7747  170.6477 N.ar    1  UNL1       -0.1111
     30 N         140.4483  141.9064  172.0099 N.ar    1  UNL1       -0.0229
     31 N         141.9201  142.1365  171.8345 N.ar    1  UNL1       -0.0431
     32 N         142.2157  142.1470  170.3640 N.ar    1  UNL1       -0.2134
     33 C         143.5638  142.3461  169.7370 C.3     1  UNL1        0.1570
     34 C         143.5780  145.0278  163.6165 C.3     1  UNL1        0.0051
     35 C         142.1408  144.6018  163.6702 C.3     1  UNL1        0.0296
@<TRIPOS>BOND
     1    34    35    1
     2    35     1    1
     3     1     2   ar
     4     2    21    1
     5    21    22    2
     6    21    23   am
     7    23    25    1
     8    25    26    1
     9    25    27    1
    10    25    28    1
    11    28    29   ar
    12    29    30   ar
    13    30    31   ar
    14    31    32   ar
    15    32    33    1
    16     2     3   ar
    17     3     4   ar
    18     4     6    1
    19     6     7   ar
    20     7     8   ar
    21     8     9   ar
    22     9    10    1
    23     9    11   ar
    24    11    12   ar
    25    12    13    1
    26     4     5   ar
    27     5    14    1
    28    14    15   ar
    29    15    16   ar
    30    16    17   ar
    31    17    18    1
    32    17    19   ar
    33    19    20   ar
    34     5     1   ar
    35    20    14   ar
    36    32    28   ar
    37    12     6   ar
    38    23    24    1
@<TRIPOS>MOLECULE
*****
 35 38 0 0 0
SMALL
GASTEIGER

@<TRIPOS>ATOM
      1 C         140.9410  143.7060  163.4325 C.ar    1  UNL1        0.0193
      2 C         140.1909  143.3397  162.1862 C.ar    1  UNL1        0.1518
      3 N         139.5057  142.0272  162.4266 N.ar    1  UNL1       -0.1608
      4 N         139.8322  141.5824  163.8214 N.ar    1  UNL1       -0.2290
      5 C         140.7193  142.6200  164.4431 C.ar    1  UNL1        0.0804
      6 C         139.3554  140.3214  164.4791 C.ar    1  UNL1        0.0933
      7 C         138.3523  140.3891  165.5923 C.ar    1  UNL1        0.0209
      8 C         137.8754  139.1282  166.2500 C.ar    1  UNL1        0.0130
      9 C         138.4017  137.7995  165.7945 C.ar    1  UNL1        0.0586
     10 CL        137.9248  136.5385  166.4522 Cl      1  UNL1       -0.0822
     11 C         139.4048  137.7317  164.6813 C.ar    1  UNL1        0.0243
     12 C         139.8817  138.9927  164.0237 C.ar    1  UNL1        0.0761
     13 CL        140.8848  138.9249  162.9105 Cl      1  UNL1       -0.0806
     14 C         141.2854  142.5788  165.8316 C.ar    1  UNL1        0.0175
     15 C         140.4031  142.8671  167.0100 C.ar    1  UNL1        0.0020
     16 C         140.9691  142.8259  168.3984 C.ar    1  UNL1        0.0067
     17 C         142.4174  142.4964  168.6086 C.ar    1  UNL1        0.0346
     18 BR        142.9834  142.4553  169.9971 Br      1  UNL1       -0.0490
     19 C         143.2996  142.2082  167.4302 C.ar    1  UNL1        0.0067
     20 C         142.7335  142.2494  166.0417 C.ar    1  UNL1        0.0020
     21 C         140.1358  144.1445  160.9216 C.2     1  UNL1        0.2653
     22 O         139.5370  145.5198  160.9333 O.2     1  UNL1       -0.2684
     23 N         140.6794  143.5740  159.6453 N.am    1  UNL1       -0.2963
     24 H         141.0723  142.6713  159.6376 H       1  UNL1        0.1501
     25 C         140.6242  144.3788  158.3807 C.3     1  UNL1        0.1108
     26 C         141.9117  145.0522  158.7531 C.3     1  UNL1        0.0275
     27 C         139.3367  143.7054  158.0082 C.3     1  UNL1        0.0275
     28 C         140.5691  145.1836  157.1161 C.ar    1  UNL1        0.1767
     29 N         139.9229  146.5275  156.9537 N.ar    1  UNL1       -0.1111
     30 N         140.1049  146.9603  155.5291 N.ar    1  UNL1       -0.0229
     31 N         140.8635  145.8839  154.8109 N.ar    1  UNL1       -0.0431
     32 N         141.1504  144.7858  155.7918 N.ar    1  UNL1       -0.2134
     33 C         141.8891  143.5133  155.4995 C.3     1  UNL1        0.1570
     34 C         143.2314  144.9259  163.3055 C.3     1  UNL1        0.0051
     35 C         141.7677  144.9416  163.6329 C.3     1  UNL1        0.0296
@<TRIPOS>BOND
     1    34    35    1
     2    35     1    1
     3     1     2   ar
     4     2    21    1
     5    21    22    2
     6    21    23   am
     7    23    25    1
     8    25    26    1
     9    25    27    1
    10    25    28    1
    11    28    29   ar
    12    29    30   ar
    13    30    31   ar
    14    31    32   ar
    15    32    33    1
    16     2     3   ar
    17     3     4   ar
    18     4     6    1
    19     6     7   ar
    20     7     8   ar
    21     8     9   ar
    22     9    10    1
    23     9    11   ar
    24    11    12   ar
    25    12    13    1
    26     4     5   ar
    27     5    14    1
    28    14    15   ar
    29    15    16   ar
    30    16    17   ar
    31    17    18    1
    32    17    19   ar
    33    19    20   ar
    34     5     1   ar
    35    20    14   ar
    36    32    28   ar
    37    12     6   ar
    38    23    24    1
@<TRIPOS>MOLECULE
*****
 35 38 0 0 0
SMALL
GASTEIGER

@<TRIPOS>ATOM
      1 C         141.2954  140.7868  163.3656 C.ar    1  UNL1        0.0193
      2 C         141.6691  141.9860  164.1855 C.ar    1  UNL1        0.1518
      3 N         141.8648  143.1433  163.2515 N.ar    1  UNL1       -0.1608
      4 N         141.6120  142.6593  161.8544 N.ar    1  UNL1       -0.2290
      5 C         141.2601  141.2029  161.9249 C.ar    1  UNL1        0.0804
      6 C         141.6964  143.4866  160.6059 C.ar    1  UNL1        0.0933
      7 C         142.7355  143.1766  159.5696 C.ar    1  UNL1        0.0209
      8 C         142.8199  144.0038  158.3212 C.ar    1  UNL1        0.0130
      9 C         141.8651  145.1410  158.1091 C.ar    1  UNL1        0.0586
     10 CL        141.9495  145.9683  156.8606 Cl      1  UNL1       -0.0822
     11 C         140.8260  145.4510  159.1454 C.ar    1  UNL1        0.0243
     12 C         140.7416  144.6239  160.3939 C.ar    1  UNL1        0.0761
     13 CL        139.7024  144.9339  161.4302 Cl      1  UNL1       -0.0806
     14 C         140.9308  140.3180  160.7594 C.ar    1  UNL1        0.0175
     15 C         139.5603  140.3584  160.1508 C.ar    1  UNL1        0.0020
     16 C         139.2310  139.4734  158.9853 C.ar    1  UNL1        0.0067
     17 C         140.2720  138.5481  158.4284 C.ar    1  UNL1        0.0346
     18 BR        139.9426  137.6632  157.2629 Br      1  UNL1       -0.0490
     19 C         141.6423  138.5078  159.0370 C.ar    1  UNL1        0.0067
     20 C         141.9717  139.3927  160.2025 C.ar    1  UNL1        0.0020
     21 C         141.8205  142.0217  165.6774 C.2     1  UNL1        0.2653
     22 O         143.1656  142.2806  166.2888 O.2     1  UNL1       -0.2684
     23 N         140.6269  141.7984  166.5579 N.am    1  UNL1       -0.2963
     24 H         139.7441  141.6285  166.1566 H       1  UNL1        0.1501
     25 C         140.7783  141.8341  168.0498 C.3     1  UNL1        0.1108
     26 C         140.4491  143.2975  168.0482 C.3     1  UNL1        0.0275
     27 C         141.1075  140.3707  168.0514 C.3     1  UNL1        0.0275
     28 C         140.9297  141.8698  169.5417 C.ar    1  UNL1        0.1767
     29 N         139.8265  141.7025  170.5442 N.ar    1  UNL1       -0.1111
     30 N         140.4259  141.8083  171.9151 N.ar    1  UNL1       -0.0229
     31 N         141.8996  142.0410  171.7600 N.ar    1  UNL1       -0.0431
     32 N         142.2110  142.0790  170.2931 N.ar    1  UNL1       -0.2134
     33 C         143.5658  142.2893  169.6846 C.3     1  UNL1        0.1570
     34 C         142.1057  138.3939  163.9718 C.3     1  UNL1        0.0051
     35 C         141.0075  139.4126  163.8937 C.3     1  UNL1        0.0296
@<TRIPOS>BOND
     1    34    35    1
     2    35     1    1
     3     1     2   ar
     4     2    21    1
     5    21    22    2
     6    21    23   am
     7    23    25    1
     8    25    26    1
     9    25    27    1
    10    25    28    1
    11    28    29   ar
    12    29    30   ar
    13    30    31   ar
    14    31    32   ar
    15    32    33    1
    16     2     3   ar
    17     3     4   ar
    18     4     6    1
    19     6     7   ar
    20     7     8   ar
    21     8     9   ar
    22     9    10    1
    23     9    11   ar
    24    11    12   ar
    25    12    13    1
    26     4     5   ar
    27     5    14    1
    28    14    15   ar
    29    15    16   ar
    30    16    17   ar
    31    17    18    1
    32    17    19   ar
    33    19    20   ar
    34     5     1   ar
    35    20    14   ar
    36    32    28   ar
    37    12     6   ar
    38    23    24    1
@<TRIPOS>MOLECULE
*****
 35 38 0 0 0
SMALL
GASTEIGER

@<TRIPOS>ATOM
      1 C         142.8967  141.7849  163.1753 C.ar    1  UNL1        0.0193
      2 C         141.7525  141.8163  164.1449 C.ar    1  UNL1        0.1518
      3 N         140.4791  141.6822  163.3636 N.ar    1  UNL1       -0.1608
      4 N         140.8363  141.5679  161.9112 N.ar    1  UNL1       -0.2290
      5 C         142.3304  141.6313  161.7948 C.ar    1  UNL1        0.0804
      6 C         139.8690  141.4166  160.7746 C.ar    1  UNL1        0.0933
      7 C         139.3608  142.6310  160.0557 C.ar    1  UNL1        0.0209
      8 C         138.3936  142.4798  158.9192 C.ar    1  UNL1        0.0130
      9 C         137.9346  141.1142  158.5017 C.ar    1  UNL1        0.0586
     10 CL        136.9673  140.9630  157.3652 Cl      1  UNL1       -0.0822
     11 C         138.4428  139.8998  159.2207 C.ar    1  UNL1        0.0243
     12 C         139.4100  140.0510  160.3571 C.ar    1  UNL1        0.0761
     13 CL        139.9182  138.8366  161.0761 Cl      1  UNL1       -0.0806
     14 C         143.1196  141.5546  160.5216 C.ar    1  UNL1        0.0175
     15 C         143.2492  140.2475  159.7971 C.ar    1  UNL1        0.0020
     16 C         144.0385  140.1708  158.5239 C.ar    1  UNL1        0.0067
     17 C         144.6982  141.4011  157.9751 C.ar    1  UNL1        0.0346
     18 BR        145.4875  141.3244  156.7018 Br      1  UNL1       -0.0490
     19 C         144.5686  142.7081  158.6995 C.ar    1  UNL1        0.0067
     20 C         143.7793  142.7848  159.9728 C.ar    1  UNL1        0.0020
     21 C         141.8625  141.9572  165.6342 C.2     1  UNL1        0.2653
     22 O         143.1160  142.5104  166.2447 O.2     1  UNL1       -0.2684
     23 N         140.7190  141.5449  166.5130 N.am    1  UNL1       -0.2963
     24 H         139.8963  141.1818  166.1123 H       1  UNL1        0.1501
     25 C         140.8290  141.6858  168.0022 C.3     1  UNL1        0.1108
     26 C         141.2611  140.2531  168.1058 C.3     1  UNL1        0.0275
     27 C         140.3968  143.1184  167.8987 C.3     1  UNL1        0.0275
     28 C         140.9389  141.8266  169.4915 C.ar    1  UNL1        0.1767
     29 N         139.8102  141.7164  170.4734 N.ar    1  UNL1       -0.1111
     30 N         140.3706  141.9241  171.8492 N.ar    1  UNL1       -0.0229
     31 N         141.8457  142.1627  171.7177 N.ar    1  UNL1       -0.0431
     32 N         142.1969  142.1025  170.2606 N.ar    1  UNL1       -0.2134
     33 C         143.5658  142.2859  169.6753 C.3     1  UNL1        0.1570
     34 C         145.1293  140.6542  163.8731 C.3     1  UNL1        0.0051
     35 C         144.3517  141.8887  163.5249 C.3     1  UNL1        0.0296
@<TRIPOS>BOND
     1    34    35    1
     2    35     1    1
     3     1     2   ar
     4     2    21    1
     5    21    22    2
     6    21    23   am
     7    23    25    1
     8    25    26    1
     9    25    27    1
    10    25    28    1
    11    28    29   ar
    12    29    30   ar
    13    30    31   ar
    14    31    32   ar
    15    32    33    1
    16     2     3   ar
    17     3     4   ar
    18     4     6    1
    19     6     7   ar
    20     7     8   ar
    21     8     9   ar
    22     9    10    1
    23     9    11   ar
    24    11    12   ar
    25    12    13    1
    26     4     5   ar
    27     5    14    1
    28    14    15   ar
    29    15    16   ar
    30    16    17   ar
    31    17    18    1
    32    17    19   ar
    33    19    20   ar
    34     5     1   ar
    35    20    14   ar
    36    32    28   ar
    37    12     6   ar
    38    23    24    1
@<TRIPOS>MOLECULE
*****
 35 38 0 0 0
SMALL
GASTEIGER

@<TRIPOS>ATOM
      1 C         140.5391  140.2167  163.2422 C.ar    1  UNL1        0.0193
      2 C         140.6657  141.3702  164.1927 C.ar    1  UNL1        0.1518
      3 N         140.9029  142.6120  163.3854 N.ar    1  UNL1       -0.1608
      4 N         140.9230  142.2260  161.9361 N.ar    1  UNL1       -0.2290
      5 C         140.6981  140.7456  161.8475 C.ar    1  UNL1        0.0804
      6 C         141.1313  143.1570  160.7785 C.ar    1  UNL1        0.0933
      7 C         140.0349  144.0918  160.3612 C.ar    1  UNL1        0.0209
      8 C         140.2432  145.0228  159.2037 C.ar    1  UNL1        0.0130
      9 C         141.5478  145.0189  158.4634 C.ar    1  UNL1        0.0586
     10 CL        141.7561  145.9499  157.3058 Cl      1  UNL1       -0.0822
     11 C         142.6441  144.0840  158.8807 C.ar    1  UNL1        0.0243
     12 C         142.4358  143.1531  160.0382 C.ar    1  UNL1        0.0761
     13 CL        143.5322  142.2182  160.4555 Cl      1  UNL1       -0.0806
     14 C         140.6421  139.9362  160.5859 C.ar    1  UNL1        0.0175
     15 C         141.8269  139.1168  160.1674 C.ar    1  UNL1        0.0020
     16 C         141.7709  138.3074  158.9058 C.ar    1  UNL1        0.0067
     17 C         140.5302  138.3173  158.0627 C.ar    1  UNL1        0.0346
     18 BR        140.4742  137.5078  156.8011 Br      1  UNL1       -0.0490
     19 C         139.3456  139.1366  158.4813 C.ar    1  UNL1        0.0067
     20 C         139.4016  139.9460  159.7429 C.ar    1  UNL1        0.0020
     21 C         140.5716  141.2951  165.6878 C.2     1  UNL1        0.2653
     22 O         139.5721  140.3802  166.3314 O.2     1  UNL1       -0.2684
     23 N         141.4769  142.1349  166.5394 N.am    1  UNL1       -0.2963
     24 H         142.1328  142.7354  166.1170 H       1  UNL1        0.1501
     25 C         141.3827  142.0598  168.0345 C.3     1  UNL1        0.1108
     26 C         142.4333  140.9892  168.0469 C.3     1  UNL1        0.0275
     27 C         140.3322  143.1304  168.0222 C.3     1  UNL1        0.0275
     28 C         141.2886  141.9847  169.5297 C.ar    1  UNL1        0.1767
     29 N         142.1897  142.6811  170.5060 N.ar    1  UNL1       -0.1111
     30 N         141.7349  142.3268  171.8907 N.ar    1  UNL1       -0.0229
     31 N         140.5527  141.4114  171.7703 N.ar    1  UNL1       -0.0431
     32 N         140.2769  141.2000  170.3111 N.ar    1  UNL1       -0.2134
     33 C         139.1815  140.3527  169.7346 C.3     1  UNL1        0.1570
     34 C         138.9232  138.1969  163.4851 C.3     1  UNL1        0.0051
     35 C         140.2962  138.7855  163.6200 C.3     1  UNL1        0.0296
@<TRIPOS>BOND
     1    34    35    1
     2    35     1    1
     3     1     2   ar
     4     2    21    1
     5    21    22    2
     6    21    23   am
     7    23    25    1
     8    25    26    1
     9    25    27    1
    10    25    28    1
    11    28    29   ar
    12    29    30   ar
    13    30    31   ar
    14    31    32   ar
    15    32    33    1
    16     2     3   ar
    17     3     4   ar
    18     4     6    1
    19     6     7   ar
    20     7     8   ar
    21     8     9   ar
    22     9    10    1
    23     9    11   ar
    24    11    12   ar
    25    12    13    1
    26     4     5   ar
    27     5    14    1
    28    14    15   ar
    29    15    16   ar
    30    16    17   ar
    31    17    18    1
    32    17    19   ar
    33    19    20   ar
    34     5     1   ar
    35    20    14   ar
    36    32    28   ar
    37    12     6   ar
    38    23    24    1
@<TRIPOS>MOLECULE
*****
 35 38 0 0 0
SMALL
GASTEIGER

@<TRIPOS>ATOM
      1 C         142.0032  142.7520  163.3037 C.ar    1  UNL1        0.0193
      2 C         141.5070  142.1699  162.0133 C.ar    1  UNL1        0.1518
      3 N         140.6114  141.0121  162.3412 N.ar    1  UNL1       -0.1608
      4 N         140.5541  140.8787  163.8342 N.ar    1  UNL1       -0.2290
      5 C         141.4143  141.9539  164.4290 C.ar    1  UNL1        0.0804
      6 C         139.7737  139.8504  164.5982 C.ar    1  UNL1        0.0933
      7 C         138.6420  140.2752  165.4864 C.ar    1  UNL1        0.0209
      8 C         137.8615  139.2470  166.2503 C.ar    1  UNL1        0.0130
      9 C         138.2128  137.7941  166.1262 C.ar    1  UNL1        0.0586
     10 CL        137.4323  136.7658  166.8902 Cl      1  UNL1       -0.0822
     11 C         139.3445  137.3693  165.2381 C.ar    1  UNL1        0.0243
     12 C         140.1249  138.3974  164.4741 C.ar    1  UNL1        0.0761
     13 CL        141.2567  137.9726  163.5859 Cl      1  UNL1       -0.0806
     14 C         141.6452  142.1898  165.8922 C.ar    1  UNL1        0.0175
     15 C         140.5249  142.6860  166.7578 C.ar    1  UNL1        0.0020
     16 C         140.7558  142.9219  168.2210 C.ar    1  UNL1        0.0067
     17 C         142.1067  142.6617  168.8188 C.ar    1  UNL1        0.0346
     18 BR        142.3375  142.8976  170.2820 Br      1  UNL1       -0.0490
     19 C         143.2268  142.1655  167.9533 C.ar    1  UNL1        0.0067
     20 C         142.9960  141.9296  166.4900 C.ar    1  UNL1        0.0020
     21 C         141.8466  142.6596  160.6368 C.2     1  UNL1        0.2653
     22 O         141.5222  144.0696  160.2411 O.2     1  UNL1       -0.2684
     23 N         142.5107  141.7392  159.6560 N.am    1  UNL1       -0.2963
     24 H         142.7237  140.8138  159.9158 H       1  UNL1        0.1501
     25 C         142.8504  142.2289  158.2795 C.3     1  UNL1        0.1108
     26 C         141.5843  141.6223  157.7513 C.3     1  UNL1        0.0275
     27 C         144.1165  142.8355  158.8078 C.3     1  UNL1        0.0275
     28 C         143.1901  142.7186  156.9030 C.ar    1  UNL1        0.1767
     29 N         142.7239  144.0030  156.2841 N.ar    1  UNL1       -0.1111
     30 N         143.3013  144.0881  154.9023 N.ar    1  UNL1       -0.0229
     31 N         144.1244  142.8563  154.6672 N.ar    1  UNL1       -0.0431
     32 N         144.0556  142.0100  155.9037 N.ar    1  UNL1       -0.2134
     33 C         144.7335  140.6871  156.1055 C.3     1  UNL1        0.1570
     34 C         142.3836  145.2614  163.8587 C.3     1  UNL1        0.0051
     35 C         142.9263  143.9260  163.4440 C.3     1  UNL1        0.0296
@<TRIPOS>BOND
     1    34    35    1
     2    35     1    1
     3     1     2   ar
     4     2    21    1
     5    21    22    2
     6    21    23   am
     7    23    25    1
     8    25    26    1
     9    25    27    1
    10    25    28    1
    11    28    29   ar
    12    29    30   ar
    13    30    31   ar
    14    31    32   ar
    15    32    33    1
    16     2     3   ar
    17     3     4   ar
    18     4     6    1
    19     6     7   ar
    20     7     8   ar
    21     8     9   ar
    22     9    10    1
    23     9    11   ar
    24    11    12   ar
    25    12    13    1
    26     4     5   ar
    27     5    14    1
    28    14    15   ar
    29    15    16   ar
    30    16    17   ar
    31    17    18    1
    32    17    19   ar
    33    19    20   ar
    34     5     1   ar
    35    20    14   ar
    36    32    28   ar
    37    12     6   ar
    38    23    24    1
@<TRIPOS>MOLECULE
*****
 35 38 0 0 0
SMALL
GASTEIGER

@<TRIPOS>ATOM
      1 C         139.5495  141.6357  159.3071 C.ar    1  UNL1        0.0193
      2 C         138.4639  140.6783  158.9135 C.ar    1  UNL1        0.1518
      3 N         137.9924  139.9773  160.1529 N.ar    1  UNL1       -0.1608
      4 N         138.7866  140.5014  161.3125 N.ar    1  UNL1       -0.2290
      5 C         139.7489  141.5264  160.7897 C.ar    1  UNL1        0.0804
      6 C         138.6435  140.0753  162.7436 C.ar    1  UNL1        0.0933
      7 C         138.1525  141.0515  163.7713 C.ar    1  UNL1        0.0209
      8 C         138.0094  140.6255  165.2023 C.ar    1  UNL1        0.0130
      9 C         138.3574  139.2233  165.6058 C.ar    1  UNL1        0.0586
     10 CL        138.2143  138.7972  167.0369 Cl      1  UNL1       -0.0822
     11 C         138.8484  138.2472  164.5781 C.ar    1  UNL1        0.0243
     12 C         138.9915  138.6732  163.1471 C.ar    1  UNL1        0.0761
     13 CL        139.4825  137.6970  162.1195 Cl      1  UNL1       -0.0806
     14 C         140.7372  142.3053  161.6062 C.ar    1  UNL1        0.0175
     15 C         140.4581  143.7371  161.9560 C.ar    1  UNL1        0.0020
     16 C         141.4463  144.5159  162.7724 C.ar    1  UNL1        0.0067
     17 C         142.7137  143.8632  163.2392 C.ar    1  UNL1        0.0346
     18 BR        143.7020  144.6421  164.0556 Br      1  UNL1       -0.0490
     19 C         142.9927  142.4315  162.8894 C.ar    1  UNL1        0.0067
     20 C         142.0045  141.6526  162.0729 C.ar    1  UNL1        0.0020
     21 C         137.9415  140.4603  157.5244 C.2     1  UNL1        0.2653
     22 O         138.3278  139.2270  156.7629 O.2     1  UNL1       -0.2684
     23 N         137.0329  141.4754  156.8969 N.am    1  UNL1       -0.2963
     24 H         136.7794  142.2848  157.3967 H       1  UNL1        0.1501
     25 C         136.5105  141.2574  155.5078 C.3     1  UNL1        0.1108
     26 C         135.2860  140.5997  156.0716 C.3     1  UNL1        0.0275
     27 C         137.7351  141.9151  154.9441 C.3     1  UNL1        0.0275
     28 C         135.9882  141.0393  154.1188 C.ar    1  UNL1        0.1767
     29 N         135.1677  142.0105  153.3227 N.ar    1  UNL1       -0.1111
     30 N         134.8670  141.3832  151.9938 N.ar    1  UNL1       -0.0229
     31 N         135.5016  140.0243  151.9685 N.ar    1  UNL1       -0.0431
     32 N         136.1945  139.8118  153.2818 N.ar    1  UNL1       -0.2134
     33 C         136.9595  138.5867  153.6869 C.3     1  UNL1        0.1570
     34 C         139.8289  143.9484  158.1567 C.3     1  UNL1        0.0051
     35 C         140.3034  142.5432  158.3806 C.3     1  UNL1        0.0296
@<TRIPOS>BOND
     1    34    35    1
     2    35     1    1
     3     1     2   ar
     4     2    21    1
     5    21    22    2
     6    21    23   am
     7    23    25    1
     8    25    26    1
     9    25    27    1
    10    25    28    1
    11    28    29   ar
    12    29    30   ar
    13    30    31   ar
    14    31    32   ar
    15    32    33    1
    16     2     3   ar
    17     3     4   ar
    18     4     6    1
    19     6     7   ar
    20     7     8   ar
    21     8     9   ar
    22     9    10    1
    23     9    11   ar
    24    11    12   ar
    25    12    13    1
    26     4     5   ar
    27     5    14    1
    28    14    15   ar
    29    15    16   ar
    30    16    17   ar
    31    17    18    1
    32    17    19   ar
    33    19    20   ar
    34     5     1   ar
    35    20    14   ar
    36    32    28   ar
    37    12     6   ar
    38    23    24    1
@<TRIPOS>MOLECULE
*****
 35 38 0 0 0
SMALL
GASTEIGER

@<TRIPOS>ATOM
      1 C         139.7115  141.2341  163.0776 C.ar    1  UNL1        0.0193
      2 C         140.8773  141.1869  164.0204 C.ar    1  UNL1        0.1518
      3 N         142.1352  141.2164  163.2039 N.ar    1  UNL1       -0.1608
      4 N         141.7469  141.2819  161.7565 N.ar    1  UNL1       -0.2290
      5 C         140.2490  141.2928  161.6784 C.ar    1  UNL1        0.0804
      6 C         142.6909  141.3283  160.5916 C.ar    1  UNL1        0.0933
      7 C         143.3451  142.6223  160.2075 C.ar    1  UNL1        0.0209
      8 C         144.2890  142.6687  159.0427 C.ar    1  UNL1        0.0130
      9 C         144.5788  141.4211  158.2621 C.ar    1  UNL1        0.0586
     10 CL        145.5228  141.4675  157.0972 Cl      1  UNL1       -0.0822
     11 C         143.9246  140.1271  158.6462 C.ar    1  UNL1        0.0243
     12 C         142.9807  140.0807  159.8110 C.ar    1  UNL1        0.0761
     13 CL        142.3265  138.7867  160.1951 Cl      1  UNL1       -0.0806
     14 C         139.4320  141.3521  160.4219 C.ar    1  UNL1        0.0175
     15 C         138.9943  140.0836  159.7514 C.ar    1  UNL1        0.0020
     16 C         138.1773  140.1428  158.4949 C.ar    1  UNL1        0.0067
     17 C         137.7979  141.4704  157.9087 C.ar    1  UNL1        0.0346
     18 BR        136.9809  141.5297  156.6521 Br      1  UNL1       -0.0490
     19 C         138.2356  142.7388  158.5792 C.ar    1  UNL1        0.0067
     20 C         139.0527  142.6796  159.8357 C.ar    1  UNL1        0.0020
     21 C         140.7988  141.1217  165.5169 C.2     1  UNL1        0.2653
     22 O         140.0130  140.0294  166.1798 O.2     1  UNL1       -0.2684
     23 N         141.5062  142.1486  166.3505 N.am    1  UNL1       -0.2963
     24 H         142.0220  142.8655  165.9154 H       1  UNL1        0.1501
     25 C         141.4278  142.0834  167.8470 C.3     1  UNL1        0.1108
     26 C         142.5761  141.1185  167.8651 C.3     1  UNL1        0.0275
     27 C         140.2794  143.0482  167.8289 C.3     1  UNL1        0.0275
     28 C         141.3493  142.0181  169.3435 C.ar    1  UNL1        0.1767
     29 N         142.2269  142.7625  170.3058 N.ar    1  UNL1       -0.1111
     30 N         141.7994  142.4014  171.6975 N.ar    1  UNL1       -0.0229
     31 N         140.6578  141.4339  171.5955 N.ar    1  UNL1       -0.0431
     32 N         140.3796  141.1970  170.1406 N.ar    1  UNL1       -0.2134
     33 C         139.3179  140.2970  169.5811 C.3     1  UNL1        0.1570
     34 C         137.6395  142.4482  164.0691 C.3     1  UNL1        0.0051
     35 C         138.2626  141.2244  163.4658 C.3     1  UNL1        0.0296
@<TRIPOS>BOND
     1    34    35    1
     2    35     1    1
     3     1     2   ar
     4     2    21    1
     5    21    22    2
     6    21    23   am
     7    23    25    1
     8    25    26    1
     9    25    27    1
    10    25    28    1
    11    28    29   ar
    12    29    30   ar
    13    30    31   ar
    14    31    32   ar
    15    32    33    1
    16     2     3   ar
    17     3     4   ar
    18     4     6    1
    19     6     7   ar
    20     7     8   ar
    21     8     9   ar
    22     9    10    1
    23     9    11   ar
    24    11    12   ar
    25    12    13    1
    26     4     5   ar
    27     5    14    1
    28    14    15   ar
    29    15    16   ar
    30    16    17   ar
    31    17    18    1
    32    17    19   ar
    33    19    20   ar
    34     5     1   ar
    35    20    14   ar
    36    32    28   ar
    37    12     6   ar
    38    23    24    1
