@<TRIPOS>MOLECULE
*****
 28 32 0 0 0
SMALL
GASTEIGER

@<TRIPOS>ATOM
      1 C         139.9936  139.0796  161.9927 C.ar    1  UNL1        0.0834
      2 C         141.3052  139.7888  161.8297 C.ar    1  UNL1        0.0273
      3 C         141.9305  139.9062  160.4714 C.ar    1  UNL1        0.0528
      4 S         143.2062  140.5430  160.0053 S.2     1  UNL1       -0.0514
      5 C         143.3083  140.3449  158.5220 C.ar    1  UNL1        0.1631
      6 N         142.0957  139.5856  158.0713 N.ar    1  UNL1       -0.2225
      7 C         141.2442  139.3145  159.2760 C.ar    1  UNL1        0.1084
      8 C         139.9325  138.6054  159.4391 C.ar    1  UNL1        0.1184
      9 N         139.3072  138.4879  160.7974 N.ar    1  UNL1       -0.2422
     10 F         137.4922  138.6097  167.4262 F       1  UNL1       -0.1832
     11 C         138.1175  138.7271  166.0679 C.ar    1  UNL1        0.2223
     12 C         138.7742  137.5342  165.4388 C.ar    1  UNL1        0.0497
     13 C         139.3995  137.6517  164.0804 C.ar    1  UNL1        0.0070
     14 C         139.3682  138.9621  163.3511 C.ar    1  UNL1        0.0370
     15 C         138.7115  140.1550  163.9802 C.ar    1  UNL1        0.1027
     16 N         138.0862  140.0376  165.3385 N.ar    1  UNL1       -0.2164
     17 N         144.4266  140.8221  157.6436 N.pl3   1  UNL1       -0.2881
     18 C         145.2240  142.0309  158.0348 C.3     1  UNL1        0.0940
     19 C         146.3423  142.5082  157.1564 C.3     1  UNL1        0.0375
     20 C         146.6632  141.7767  155.8868 C.3     1  UNL1        0.0609
     21 C         145.8659  140.5679  155.4956 C.3     1  UNL1        0.0375
     22 C         144.7476  140.0906  156.3740 C.3     1  UNL1        0.0940
     23 N         147.7816  142.2540  155.0084 N.3     1  UNL1       -0.2738
     24 C         149.1576  141.6782  155.1667 C.3     1  UNL1        0.0720
     25 C         150.2759  142.1554  154.2883 C.3     1  UNL1        0.0174
     26 C         150.0182  143.2085  153.2517 C.3     1  UNL1        0.0029
     27 C         148.6422  143.7843  153.0934 C.3     1  UNL1        0.0174
     28 C         147.5239  143.3070  153.9718 C.3     1  UNL1        0.0720
@<TRIPOS>BOND
     1    10    11    1
     2    11    12   ar
     3    12    13   ar
     4    13    14   ar
     5    14     1    1
     6     1     2   ar
     7     2     3   ar
     8     3     4   ar
     9     4     5   ar
    10     5    17    1
    11    17    18    1
    12    18    19    1
    13    19    20    1
    14    20    23    1
    15    23    24    1
    16    24    25    1
    17    25    26    1
    18    26    27    1
    19    27    28    1
    20    20    21    1
    21    21    22    1
    22     5     6   ar
    23     6     7   ar
    24     7     8   ar
    25     8     9   ar
    26    14    15   ar
    27    15    16   ar
    28    16    11   ar
    29     9     1   ar
    30     7     3   ar
    31    22    17    1
    32    28    23    1
@<TRIPOS>MOLECULE
*****
 28 32 0 0 0
SMALL
GASTEIGER

@<TRIPOS>ATOM
      1 C         139.5039  141.3103  165.9305 C.ar    1  UNL1        0.0834
      2 C         140.1880  142.3462  165.0886 C.ar    1  UNL1        0.0273
      3 C         139.8348  142.4861  163.6375 C.ar    1  UNL1        0.0528
      4 S         140.3370  143.4086  162.5666 S.2     1  UNL1       -0.0514
      5 C         139.6101  143.0827  161.2957 C.ar    1  UNL1        0.1631
      6 N         138.6586  141.9587  161.5810 N.ar    1  UNL1       -0.2225
      7 C         138.7974  141.5900  163.0284 C.ar    1  UNL1        0.1084
      8 C         138.1133  140.5541  163.8703 C.ar    1  UNL1        0.1184
      9 N         138.4666  140.4142  165.3214 N.ar    1  UNL1       -0.2422
     10 F         140.9167  140.7507  171.7349 F       1  UNL1       -0.1832
     11 C         140.5635  140.8906  170.2839 C.ar    1  UNL1        0.2223
     12 C         140.9298  142.1406  169.5400 C.ar    1  UNL1        0.0497
     13 C         140.5766  142.2805  168.0888 C.ar    1  UNL1        0.0070
     14 C         139.8571  141.1704  167.3816 C.ar    1  UNL1        0.0370
     15 C         139.4908  139.9204  168.1256 C.ar    1  UNL1        0.1027
     16 N         139.8440  139.7805  169.5766 N.ar    1  UNL1       -0.2164
     17 N         139.8011  143.7615  159.9718 N.pl3   1  UNL1       -0.2881
     18 C         140.4514  145.1117  159.9082 C.3     1  UNL1        0.0940
     19 C         140.6424  145.7905  158.5843 C.3     1  UNL1        0.0375
     20 C         140.1832  145.1192  157.3240 C.3     1  UNL1        0.0609
     21 C         139.5329  143.7690  157.3876 C.3     1  UNL1        0.0375
     22 C         139.3418  143.0902  158.7115 C.3     1  UNL1        0.0940
     23 N         140.3742  145.7980  156.0001 N.3     1  UNL1       -0.2738
     24 C         141.3316  145.2278  154.9961 C.3     1  UNL1        0.0720
     25 C         141.5226  145.9066  153.6722 C.3     1  UNL1        0.0174
     26 C         140.7562  147.1557  153.3523 C.3     1  UNL1        0.0029
     27 C         139.7988  147.7260  154.3563 C.3     1  UNL1        0.0174
     28 C         139.6078  147.0471  155.6802 C.3     1  UNL1        0.0720
@<TRIPOS>BOND
     1    10    11    1
     2    11    12   ar
     3    12    13   ar
     4    13    14   ar
     5    14     1    1
     6     1     2   ar
     7     2     3   ar
     8     3     4   ar
     9     4     5   ar
    10     5    17    1
    11    17    18    1
    12    18    19    1
    13    19    20    1
    14    20    23    1
    15    23    24    1
    16    24    25    1
    17    25    26    1
    18    26    27    1
    19    27    28    1
    20    20    21    1
    21    21    22    1
    22     5     6   ar
    23     6     7   ar
    24     7     8   ar
    25     8     9   ar
    26    14    15   ar
    27    15    16   ar
    28    16    11   ar
    29     9     1   ar
    30     7     3   ar
    31    22    17    1
    32    28    23    1
@<TRIPOS>MOLECULE
*****
 28 32 0 0 0
SMALL
GASTEIGER

@<TRIPOS>ATOM
      1 C         143.5635  141.4762  159.5210 C.ar    1  UNL1        0.0834
      2 C         143.0751  140.0840  159.7916 C.ar    1  UNL1        0.0273
      3 C         143.0733  139.0630  158.6928 C.ar    1  UNL1        0.0528
      4 S         142.6539  137.6232  158.6612 S.2     1  UNL1       -0.0514
      5 C         142.8811  137.1044  157.2723 C.ar    1  UNL1        0.1631
      6 N         143.4411  138.2237  156.4454 N.ar    1  UNL1       -0.2225
      7 C         143.5599  139.4341  157.3233 C.ar    1  UNL1        0.1084
      8 C         144.0482  140.8263  157.0526 C.ar    1  UNL1        0.1184
      9 N         144.0500  141.8473  158.1515 N.ar    1  UNL1       -0.2422
     10 F         143.5707  145.5606  163.9162 F       1  UNL1       -0.1832
     11 C         143.5689  144.5395  162.8174 C.ar    1  UNL1        0.2223
     12 C         144.5913  143.4419  162.8119 C.ar    1  UNL1        0.0497
     13 C         144.5894  142.4207  161.7131 C.ar    1  UNL1        0.0070
     14 C         143.5653  142.4973  160.6198 C.ar    1  UNL1        0.0370
     15 C         142.5430  143.5949  160.6253 C.ar    1  UNL1        0.1027
     16 N         142.5447  144.6160  161.7241 N.ar    1  UNL1       -0.2164
     17 N         142.5981  135.7111  156.7941 N.pl3   1  UNL1       -0.2881
     18 C         143.2897  134.5438  157.4336 C.3     1  UNL1        0.0940
     19 C         143.0067  133.1505  156.9555 C.3     1  UNL1        0.0375
     20 C         142.0321  132.9245  155.8378 C.3     1  UNL1        0.0609
     21 C         141.3406  134.0919  155.1983 C.3     1  UNL1        0.0375
     22 C         141.6236  135.4852  155.6765 C.3     1  UNL1        0.0940
     23 N         141.7491  131.5312  155.3597 N.3     1  UNL1       -0.2738
     24 C         140.4920  131.2418  154.5944 C.3     1  UNL1        0.0720
     25 C         140.2090  129.8485  154.1162 C.3     1  UNL1        0.0174
     26 C         141.1832  128.7446  154.4034 C.3     1  UNL1        0.0029
     27 C         142.4403  129.0341  155.1687 C.3     1  UNL1        0.0174
     28 C         142.7233  130.4274  155.6468 C.3     1  UNL1        0.0720
@<TRIPOS>BOND
     1    10    11    1
     2    11    12   ar
     3    12    13   ar
     4    13    14   ar
     5    14     1    1
     6     1     2   ar
     7     2     3   ar
     8     3     4   ar
     9     4     5   ar
    10     5    17    1
    11    17    18    1
    12    18    19    1
    13    19    20    1
    14    20    23    1
    15    23    24    1
    16    24    25    1
    17    25    26    1
    18    26    27    1
    19    27    28    1
    20    20    21    1
    21    21    22    1
    22     5     6   ar
    23     6     7   ar
    24     7     8   ar
    25     8     9   ar
    26    14    15   ar
    27    15    16   ar
    28    16    11   ar
    29     9     1   ar
    30     7     3   ar
    31    22    17    1
    32    28    23    1
@<TRIPOS>MOLECULE
*****
 28 32 0 0 0
SMALL
GASTEIGER

@<TRIPOS>ATOM
      1 C         139.9336  145.2086  157.3554 C.ar    1  UNL1        0.0834
      2 C         140.4254  145.6597  158.6988 C.ar    1  UNL1        0.0273
      3 C         140.3989  144.7145  159.8632 C.ar    1  UNL1        0.0528
      4 S         140.8146  144.8745  161.2955 S.2     1  UNL1       -0.0514
      5 C         140.5533  143.5773  162.0018 C.ar    1  UNL1        0.1631
      6 N         139.9761  142.6154  161.0059 N.ar    1  UNL1       -0.2225
      7 C         139.8807  143.3182  159.6842 C.ar    1  UNL1        0.1084
      8 C         139.3889  142.8672  158.3408 C.ar    1  UNL1        0.1184
      9 N         139.4154  143.8124  157.1764 N.ar    1  UNL1       -0.2422
     10 F         140.0395  148.9894  152.6976 F       1  UNL1       -0.1832
     11 C         140.0130  148.0442  153.8620 C.ar    1  UNL1        0.2223
     12 C         139.1512  148.3447  155.0524 C.ar    1  UNL1        0.0497
     13 C         139.1248  147.3995  156.2169 C.ar    1  UNL1        0.0070
     14 C         139.9601  146.1539  156.1909 C.ar    1  UNL1        0.0370
     15 C         140.8219  145.8534  155.0005 C.ar    1  UNL1        0.1027
     16 N         140.8483  146.7986  153.8361 N.ar    1  UNL1       -0.2164
     17 N         140.8219  143.2919  163.4497 N.pl3   1  UNL1       -0.2881
     18 C         139.7273  143.4557  164.4621 C.3     1  UNL1        0.0940
     19 C         139.9959  143.1704  165.9100 C.3     1  UNL1        0.0375
     20 C         141.3592  142.7213  166.3455 C.3     1  UNL1        0.0609
     21 C         142.4539  142.5575  165.3331 C.3     1  UNL1        0.0375
     22 C         142.1852  142.8428  163.8852 C.3     1  UNL1        0.0940
     23 N         141.6279  142.4359  167.7934 N.3     1  UNL1       -0.2738
     24 C         143.0161  142.0910  168.2448 C.3     1  UNL1        0.0720
     25 C         143.2848  141.8057  169.6927 C.3     1  UNL1        0.0174
     26 C         142.1652  141.8653  170.6892 C.3     1  UNL1        0.0029
     27 C         140.7770  142.2102  170.2377 C.3     1  UNL1        0.0174
     28 C         140.5083  142.4955  168.7898 C.3     1  UNL1        0.0720
@<TRIPOS>BOND
     1    10    11    1
     2    11    12   ar
     3    12    13   ar
     4    13    14   ar
     5    14     1    1
     6     1     2   ar
     7     2     3   ar
     8     3     4   ar
     9     4     5   ar
    10     5    17    1
    11    17    18    1
    12    18    19    1
    13    19    20    1
    14    20    23    1
    15    23    24    1
    16    24    25    1
    17    25    26    1
    18    26    27    1
    19    27    28    1
    20    20    21    1
    21    21    22    1
    22     5     6   ar
    23     6     7   ar
    24     7     8   ar
    25     8     9   ar
    26    14    15   ar
    27    15    16   ar
    28    16    11   ar
    29     9     1   ar
    30     7     3   ar
    31    22    17    1
    32    28    23    1
@<TRIPOS>MOLECULE
*****
 28 32 0 0 0
SMALL
GASTEIGER

@<TRIPOS>ATOM
      1 C         141.1832  140.2405  166.7221 C.ar    1  UNL1        0.0834
      2 C         140.5931  140.4866  165.3652 C.ar    1  UNL1        0.0273
      3 C         141.0909  139.7142  164.1796 C.ar    1  UNL1        0.0528
      4 S         140.7041  139.7400  162.7306 S.2     1  UNL1       -0.0514
      5 C         141.5529  138.7375  162.0063 C.ar    1  UNL1        0.1631
      6 N         142.4643  138.0922  163.0077 N.ar    1  UNL1       -0.2225
      7 C         142.1788  138.6958  164.3509 C.ar    1  UNL1        0.1084
      8 C         142.7689  138.4498  165.7078 C.ar    1  UNL1        0.1184
      9 N         142.2711  139.2221  166.8934 N.ar    1  UNL1       -0.2422
     10 F         139.1920  143.3296  171.4647 F       1  UNL1       -0.1832
     11 C         139.6898  142.5574  170.2791 C.ar    1  UNL1        0.2223
     12 C         140.3948  143.2691  169.1627 C.ar    1  UNL1        0.0497
     13 C         140.8927  142.4968  167.9770 C.ar    1  UNL1        0.0070
     14 C         140.6854  141.0128  167.9078 C.ar    1  UNL1        0.0370
     15 C         139.9804  140.3011  169.0242 C.ar    1  UNL1        0.1027
     16 N         139.4826  141.0733  170.2098 N.ar    1  UNL1       -0.2164
     17 N         141.4996  138.4337  160.5383 N.pl3   1  UNL1       -0.2881
     18 C         142.7113  137.8910  159.8403 C.3     1  UNL1        0.0940
     19 C         142.6580  137.5871  158.3724 C.3     1  UNL1        0.0375
     20 C         141.3931  137.8260  157.6025 C.3     1  UNL1        0.0609
     21 C         140.1814  138.3688  158.3005 C.3     1  UNL1        0.0375
     22 C         140.2347  138.6726  159.7684 C.3     1  UNL1        0.0940
     23 N         141.3398  137.5222  156.1345 N.3     1  UNL1       -0.2738
     24 C         142.4936  137.8912  155.2499 C.3     1  UNL1        0.0720
     25 C         142.4403  137.5874  153.7819 C.3     1  UNL1        0.0174
     26 C         141.2332  136.9146  153.1986 C.3     1  UNL1        0.0029
     27 C         140.0794  136.5456  154.0833 C.3     1  UNL1        0.0174
     28 C         140.1327  136.8494  155.5512 C.3     1  UNL1        0.0720
@<TRIPOS>BOND
     1    10    11    1
     2    11    12   ar
     3    12    13   ar
     4    13    14   ar
     5    14     1    1
     6     1     2   ar
     7     2     3   ar
     8     3     4   ar
     9     4     5   ar
    10     5    17    1
    11    17    18    1
    12    18    19    1
    13    19    20    1
    14    20    23    1
    15    23    24    1
    16    24    25    1
    17    25    26    1
    18    26    27    1
    19    27    28    1
    20    20    21    1
    21    21    22    1
    22     5     6   ar
    23     6     7   ar
    24     7     8   ar
    25     8     9   ar
    26    14    15   ar
    27    15    16   ar
    28    16    11   ar
    29     9     1   ar
    30     7     3   ar
    31    22    17    1
    32    28    23    1
@<TRIPOS>MOLECULE
*****
 28 32 0 0 0
SMALL
GASTEIGER

@<TRIPOS>ATOM
      1 C         143.0431  137.8524  157.4529 C.ar    1  UNL1        0.0834
      2 C         142.5904  137.6334  158.8660 C.ar    1  UNL1        0.0273
      3 C         142.7185  138.7367  159.8741 C.ar    1  UNL1        0.0528
      4 S         142.3608  138.8137  161.3288 S.2     1  UNL1       -0.0514
      5 C         142.7205  140.1836  161.8227 C.ar    1  UNL1        0.1631
      6 N         143.3005  140.9533  160.6733 N.ar    1  UNL1       -0.2225
      7 C         143.2993  140.0591  159.4689 C.ar    1  UNL1        0.1084
      8 C         143.7520  140.2781  158.0558 C.ar    1  UNL1        0.1184
      9 N         143.6239  139.1747  157.0477 N.ar    1  UNL1       -0.2422
     10 F         142.5307  133.4391  153.4204 F       1  UNL1       -0.1832
     11 C         142.6588  134.5424  154.4285 C.ar    1  UNL1        0.2223
     12 C         142.9478  134.2169  155.8640 C.ar    1  UNL1        0.0497
     13 C         143.0759  135.3202  156.8721 C.ar    1  UNL1        0.0070
     14 C         142.9150  136.7490  156.4447 C.ar    1  UNL1        0.0370
     15 C         142.6260  137.0745  155.0093 C.ar    1  UNL1        0.1027
     16 N         142.4979  135.9712  154.0012 N.ar    1  UNL1       -0.2164
     17 N         142.5331  140.6942  163.2206 N.pl3   1  UNL1       -0.2881
     18 C         142.9606  139.8561  164.3888 C.3     1  UNL1        0.0940
     19 C         142.7732  140.3667  165.7867 C.3     1  UNL1        0.0375
     20 C         142.1584  141.7154  166.0165 C.3     1  UNL1        0.0609
     21 C         141.7309  142.5536  164.8483 C.3     1  UNL1        0.0375
     22 C         141.9183  142.0430  163.4503 C.3     1  UNL1        0.0940
     23 N         141.9710  142.2260  167.4144 N.3     1  UNL1       -0.2738
     24 C         140.6328  142.7451  167.8502 C.3     1  UNL1        0.0720
     25 C         140.4454  143.2557  169.2481 C.3     1  UNL1        0.0174
     26 C         141.5962  143.2472  170.2102 C.3     1  UNL1        0.0029
     27 C         142.9343  142.7281  169.7744 C.3     1  UNL1        0.0174
     28 C         143.1217  142.2175  168.3765 C.3     1  UNL1        0.0720
@<TRIPOS>BOND
     1    10    11    1
     2    11    12   ar
     3    12    13   ar
     4    13    14   ar
     5    14     1    1
     6     1     2   ar
     7     2     3   ar
     8     3     4   ar
     9     4     5   ar
    10     5    17    1
    11    17    18    1
    12    18    19    1
    13    19    20    1
    14    20    23    1
    15    23    24    1
    16    24    25    1
    17    25    26    1
    18    26    27    1
    19    27    28    1
    20    20    21    1
    21    21    22    1
    22     5     6   ar
    23     6     7   ar
    24     7     8   ar
    25     8     9   ar
    26    14    15   ar
    27    15    16   ar
    28    16    11   ar
    29     9     1   ar
    30     7     3   ar
    31    22    17    1
    32    28    23    1
@<TRIPOS>MOLECULE
*****
 28 32 0 0 0
SMALL
GASTEIGER

@<TRIPOS>ATOM
      1 C         139.7323  141.2023  165.9086 C.ar    1  UNL1        0.0834
      2 C         140.2327  142.3762  165.1203 C.ar    1  UNL1        0.0273
      3 C         139.9877  142.4463  163.6422 C.ar    1  UNL1        0.0528
      4 S         140.3583  143.4705  162.6108 S.2     1  UNL1       -0.0514
      5 C         139.8420  142.9997  161.2835 C.ar    1  UNL1        0.1631
      6 N         139.1523  141.6845  161.4946 N.ar    1  UNL1       -0.2225
      7 C         139.2423  141.3425  162.9523 C.ar    1  UNL1        0.1084
      8 C         138.7419  140.1685  163.7405 C.ar    1  UNL1        0.1184
      9 N         138.9869  140.0984  165.2187 N.ar    1  UNL1       -0.2422
     10 F         140.7119  140.9216  171.8215 F       1  UNL1       -0.1832
     11 C         140.4670  140.9918  170.3433 C.ar    1  UNL1        0.2223
     12 C         140.9576  142.1712  169.5570 C.ar    1  UNL1        0.0497
     13 C         140.7127  142.2413  168.0787 C.ar    1  UNL1        0.0070
     14 C         139.9772  141.1321  167.3869 C.ar    1  UNL1        0.0370
     15 C         139.4866  139.9527  168.1732 C.ar    1  UNL1        0.1027
     16 N         139.7315  139.8825  169.6514 N.ar    1  UNL1       -0.2164
     17 N         139.9895  143.7179  159.9750 N.pl3   1  UNL1       -0.2881
     18 C         139.2274  143.2482  158.7715 C.3     1  UNL1        0.0940
     19 C         139.3749  143.9664  157.4629 C.3     1  UNL1        0.0375
     20 C         140.2845  145.1545  157.3578 C.3     1  UNL1        0.0609
     21 C         141.0467  145.6243  158.5613 C.3     1  UNL1        0.0375
     22 C         140.8992  144.9060  159.8699 C.3     1  UNL1        0.0940
     23 N         140.4320  145.8727  156.0493 N.3     1  UNL1       -0.2738
     24 C         139.6409  147.1193  155.7846 C.3     1  UNL1        0.0720
     25 C         139.7884  147.8376  154.4760 C.3     1  UNL1        0.0174
     26 C         140.7271  147.3093  153.4321 C.3     1  UNL1        0.0029
     27 C         141.5182  146.0627  153.6968 C.3     1  UNL1        0.0174
     28 C         141.3707  145.3444  155.0054 C.3     1  UNL1        0.0720
@<TRIPOS>BOND
     1    10    11    1
     2    11    12   ar
     3    12    13   ar
     4    13    14   ar
     5    14     1    1
     6     1     2   ar
     7     2     3   ar
     8     3     4   ar
     9     4     5   ar
    10     5    17    1
    11    17    18    1
    12    18    19    1
    13    19    20    1
    14    20    23    1
    15    23    24    1
    16    24    25    1
    17    25    26    1
    18    26    27    1
    19    27    28    1
    20    20    21    1
    21    21    22    1
    22     5     6   ar
    23     6     7   ar
    24     7     8   ar
    25     8     9   ar
    26    14    15   ar
    27    15    16   ar
    28    16    11   ar
    29     9     1   ar
    30     7     3   ar
    31    22    17    1
    32    28    23    1
@<TRIPOS>MOLECULE
*****
 28 32 0 0 0
SMALL
GASTEIGER

@<TRIPOS>ATOM
      1 C         141.2009  142.0962  165.3461 C.ar    1  UNL1        0.0834
      2 C         141.7488  140.8954  164.6334 C.ar    1  UNL1        0.0273
      3 C         141.3836  140.6423  163.2007 C.ar    1  UNL1        0.0528
      4 S         141.7661  139.5512  162.2452 S.2     1  UNL1       -0.0514
      5 C         141.0895  139.8244  160.9346 C.ar    1  UNL1        0.1631
      6 N         140.2888  141.0844  161.0803 N.ar    1  UNL1       -0.2225
      7 C         140.4706  141.5900  162.4808 C.ar    1  UNL1        0.1084
      8 C         139.9227  142.7907  163.1935 C.ar    1  UNL1        0.1184
      9 N         140.2879  143.0438  164.6261 N.ar    1  UNL1       -0.2422
     10 F         142.6615  143.1088  171.0769 F       1  UNL1       -0.1832
     11 C         142.2963  142.8557  169.6442 C.ar    1  UNL1        0.2223
     12 C         140.8650  142.9538  169.2064 C.ar    1  UNL1        0.0497
     13 C         140.4999  142.7006  167.7737 C.ar    1  UNL1        0.0070
     14 C         141.5660  142.3494  166.7788 C.ar    1  UNL1        0.0370
     15 C         142.9974  142.2513  167.2166 C.ar    1  UNL1        0.1027
     16 N         143.3625  142.5044  168.6492 N.ar    1  UNL1       -0.2164
     17 N         141.1950  138.9850  159.6960 N.pl3   1  UNL1       -0.2881
     18 C         139.9991  138.8033  158.8090 C.3     1  UNL1        0.0940
     19 C         140.1046  137.9639  157.5704 C.3     1  UNL1        0.0375
     20 C         141.4060  137.3062  157.2187 C.3     1  UNL1        0.0609
     21 C         142.6019  137.4879  158.1057 C.3     1  UNL1        0.0375
     22 C         142.4964  138.3273  159.3443 C.3     1  UNL1        0.0940
     23 N         141.5116  136.4667  155.9801 N.3     1  UNL1       -0.2738
     24 C         142.5111  135.3503  155.9135 C.3     1  UNL1        0.0720
     25 C         142.6166  134.5109  154.6749 C.3     1  UNL1        0.0174
     26 C         141.7226  134.7879  153.5028 C.3     1  UNL1        0.0029
     27 C         140.7230  135.9043  153.5693 C.3     1  UNL1        0.0174
     28 C         140.6175  136.7437  154.8079 C.3     1  UNL1        0.0720
@<TRIPOS>BOND
     1    10    11    1
     2    11    12   ar
     3    12    13   ar
     4    13    14   ar
     5    14     1    1
     6     1     2   ar
     7     2     3   ar
     8     3     4   ar
     9     4     5   ar
    10     5    17    1
    11    17    18    1
    12    18    19    1
    13    19    20    1
    14    20    23    1
    15    23    24    1
    16    24    25    1
    17    25    26    1
    18    26    27    1
    19    27    28    1
    20    20    21    1
    21    21    22    1
    22     5     6   ar
    23     6     7   ar
    24     7     8   ar
    25     8     9   ar
    26    14    15   ar
    27    15    16   ar
    28    16    11   ar
    29     9     1   ar
    30     7     3   ar
    31    22    17    1
    32    28    23    1
@<TRIPOS>MOLECULE
*****
 28 32 0 0 0
SMALL
GASTEIGER

@<TRIPOS>ATOM
      1 C         141.8354  141.8446  166.7180 C.ar    1  UNL1        0.0834
      2 C         140.9668  142.0306  165.5093 C.ar    1  UNL1        0.0273
      3 C         141.5284  142.6679  164.2731 C.ar    1  UNL1        0.0528
      4 S         140.9180  142.9805  162.9391 S.2     1  UNL1       -0.0514
      5 C         141.9709  143.6251  162.0870 C.ar    1  UNL1        0.1631
      6 N         143.2321  143.7108  162.8945 N.ar    1  UNL1       -0.2225
      7 C         142.9587  143.1192  164.2455 C.ar    1  UNL1        0.1084
      8 C         143.8272  142.9332  165.4542 C.ar    1  UNL1        0.1184
      9 N         143.2656  142.2959  166.6904 N.ar    1  UNL1       -0.2422
     10 F         139.5888  139.2953  171.6631 F       1  UNL1       -0.1832
     11 C         140.1504  139.9326  170.4269 C.ar    1  UNL1        0.2223
     12 C         141.5084  140.5687  170.4618 C.ar    1  UNL1        0.0497
     13 C         142.0701  141.2061  169.2254 C.ar    1  UNL1        0.0070
     14 C         141.2737  141.2073  167.9543 C.ar    1  UNL1        0.0370
     15 C         139.9157  140.5711  167.9194 C.ar    1  UNL1        0.1027
     16 N         139.3541  139.9338  169.1557 N.ar    1  UNL1       -0.2164
     17 N         141.7936  144.1004  160.6754 N.pl3   1  UNL1       -0.2881
     18 C         142.7135  143.6088  159.5974 C.3     1  UNL1        0.0940
     19 C         142.5363  144.0841  158.1858 C.3     1  UNL1        0.0375
     20 C         141.4392  145.0511  157.8522 C.3     1  UNL1        0.0609
     21 C         140.5194  145.5428  158.9302 C.3     1  UNL1        0.0375
     22 C         140.6966  145.0674  160.3418 C.3     1  UNL1        0.0940
     23 N         141.2620  145.5265  156.4406 N.3     1  UNL1       -0.2738
     24 C         142.1621  145.0110  155.3571 C.3     1  UNL1        0.0720
     25 C         141.9849  145.4864  153.9455 C.3     1  UNL1        0.0174
     26 C         140.9076  146.4772  153.6174 C.3     1  UNL1        0.0029
     27 C         140.0075  146.9926  154.7009 C.3     1  UNL1        0.0174
     28 C         140.1847  146.5172  156.1125 C.3     1  UNL1        0.0720
@<TRIPOS>BOND
     1    10    11    1
     2    11    12   ar
     3    12    13   ar
     4    13    14   ar
     5    14     1    1
     6     1     2   ar
     7     2     3   ar
     8     3     4   ar
     9     4     5   ar
    10     5    17    1
    11    17    18    1
    12    18    19    1
    13    19    20    1
    14    20    23    1
    15    23    24    1
    16    24    25    1
    17    25    26    1
    18    26    27    1
    19    27    28    1
    20    20    21    1
    21    21    22    1
    22     5     6   ar
    23     6     7   ar
    24     7     8   ar
    25     8     9   ar
    26    14    15   ar
    27    15    16   ar
    28    16    11   ar
    29     9     1   ar
    30     7     3   ar
    31    22    17    1
    32    28    23    1
