@<TRIPOS>MOLECULE
*****
 41 44 0 0 0
SMALL
GASTEIGER

@<TRIPOS>ATOM
      1 C         142.6596  140.9171  166.0203 C.ar    1  UNL1        0.2144
      2 C         142.0107  142.2695  166.0194 C.ar    1  UNL1        0.1822
      3 O         141.4256  142.8214  167.2855 O.2     1  UNL1       -0.4500
      4 C         141.4893  142.0209  168.5525 C.ar    1  UNL1        0.1545
      5 C         140.9042  142.5728  169.8186 C.ar    1  UNL1        0.0744
      6 C         140.9680  141.7723  171.0855 C.ar    1  UNL1        0.1397
      7 O         140.3828  142.3242  172.3517 O.3     1  UNL1       -0.5053
      8 C         141.6169  140.4199  171.0863 C.ar    1  UNL1        0.0735
      9 C         142.2020  139.8680  169.8203 C.ar    1  UNL1        0.1428
     10 O         142.8510  138.5157  169.8211 O.3     1  UNL1       -0.5052
     11 C         142.1383  140.6685  168.5533 C.ar    1  UNL1        0.1104
     12 C         142.7234  140.1167  167.2872 C.ar    1  UNL1        0.2382
     13 O         143.3723  138.7643  167.2880 O.2     1  UNL1       -0.2830
     14 H         139.9775  143.1689  172.3512 H       1  UNL1        0.2922
     15 H         142.8908  138.0156  170.6125 H       1  UNL1        0.2922
     16 C         141.9469  143.0700  164.7524 C.ar    1  UNL1        0.0379
     17 C         140.7434  142.9713  163.8627 C.ar    1  UNL1        0.0062
     18 C         140.6796  143.7717  162.5958 C.ar    1  UNL1        0.0367
     19 C         141.8195  144.6709  162.2186 C.ar    1  UNL1        0.1337
     20 O         141.7557  145.4714  160.9516 O.3     1  UNL1       -0.5055
     21 C         143.0230  144.7697  163.1083 C.ar    1  UNL1        0.0367
     22 C         143.0867  143.9692  164.3752 C.ar    1  UNL1        0.0062
     23 H         141.0039  145.4097  160.3958 H       1  UNL1        0.2922
     24 O         143.2448  140.3653  164.7541 O.3     1  UNL1       -0.4433
     25 C         142.0198  138.5787  161.4288 C.3     1  UNL1        0.2438
     26 C         140.6027  138.2462  161.7912 C.3     1  UNL1        0.1816
     27 O         139.7220  137.5399  160.8035 O.3     1  UNL1       -0.3785
     28 C         140.0662  138.6201  163.1412 C.3     1  UNL1        0.1494
     29 C         138.6492  138.2877  163.5035 C.3     1  UNL1        0.0349
     30 O         140.9469  139.3265  164.1288 O.3     1  UNL1       -0.3177
     31 C         142.3641  139.6589  163.7664 C.3     1  UNL1        0.3333
     32 C         142.9004  139.2850  162.4165 C.3     1  UNL1        0.2803
     33 H         138.8445  137.4022  161.1934 H       1  UNL1        0.2106
     34 O         142.5561  138.2048  160.0789 O.3     1  UNL1       -0.4456
     35 C         141.4334  139.9019  158.4635 C.3     1  UNL1        0.1212
     36 C         142.6687  139.2435  159.0026 C.2     1  UNL1        0.3176
     37 O         144.0166  139.6238  158.4654 O.2     1  UNL1       -0.2501
     38 O         144.3175  139.6175  162.0542 O.3     1  UNL1       -0.4417
     39 C         144.7577  141.0498  161.9850 C.2     1  UNL1        0.3178
     40 C         144.1158  141.9852  161.0038 C.3     1  UNL1        0.1212
     41 O         145.8399  141.5467  162.8972 O.2     1  UNL1       -0.2501
@<TRIPOS>BOND
     1    35    36    1
     2    36    37    2
     3    36    34    1
     4    25    34    1
     5    25    26    1
     6    26    27    1
     7    26    28    1
     8    28    29    1
     9    28    30    1
    10    30    31    1
    11    31    24    1
    12    24     1    1
    13     1     2   ar
    14     2    16    1
    15    16    17   ar
    16    17    18   ar
    17    18    19   ar
    18    19    20    1
    19    19    21   ar
    20    21    22   ar
    21     2     3   ar
    22     3     4   ar
    23     4     5   ar
    24     5     6   ar
    25     6     7    1
    26     6     8   ar
    27     8     9   ar
    28     9    10    1
    29     9    11   ar
    30    11    12   ar
    31    12    13    2
    32    31    32    1
    33    32    38    1
    34    38    39    1
    35    39    40    1
    36    39    41    2
    37    32    25    1
    38    12     1   ar
    39    22    16   ar
    40    11     4   ar
    41    27    33    1
    42    20    23    1
    43     7    14    1
    44    10    15    1
@<TRIPOS>MOLECULE
*****
 41 44 0 0 0
SMALL
GASTEIGER

@<TRIPOS>ATOM
      1 C         141.7352  141.8208  165.4968 C.ar    1  UNL1        0.2144
      2 C         140.8225  142.9788  165.7725 C.ar    1  UNL1        0.1822
      3 O         140.3701  143.2599  167.1747 O.2     1  UNL1       -0.4500
      4 C         140.8305  142.3830  168.3013 C.ar    1  UNL1        0.1545
      5 C         140.3781  142.6641  169.7035 C.ar    1  UNL1        0.0744
      6 C         140.8385  141.7872  170.8301 C.ar    1  UNL1        0.1397
      7 O         140.3861  142.0683  172.2324 O.3     1  UNL1       -0.5053
      8 C         141.7513  140.6293  170.5544 C.ar    1  UNL1        0.0735
      9 C         142.2036  140.3482  169.1521 C.ar    1  UNL1        0.1428
     10 O         143.1164  139.1902  168.8764 O.3     1  UNL1       -0.5052
     11 C         141.7432  141.2250  168.0256 C.ar    1  UNL1        0.1104
     12 C         142.1956  140.9440  166.6233 C.ar    1  UNL1        0.2382
     13 O         143.1084  139.7860  166.3476 O.2     1  UNL1       -0.2830
     14 H         139.8160  142.7916  172.4046 H       1  UNL1        0.2922
     15 H         143.4040  138.6424  169.5801 H       1  UNL1        0.2922
     16 C         140.3621  143.8557  164.6458 C.ar    1  UNL1        0.0379
     17 C         138.9440  143.7747  164.1637 C.ar    1  UNL1        0.0062
     18 C         138.4837  144.6516  163.0371 C.ar    1  UNL1        0.0367
     19 C         139.4415  145.6094  162.3927 C.ar    1  UNL1        0.1337
     20 O         138.9811  146.4863  161.2661 O.3     1  UNL1       -0.5055
     21 C         140.8595  145.6903  162.8748 C.ar    1  UNL1        0.0367
     22 C         141.3199  144.8135  164.0014 C.ar    1  UNL1        0.0062
     23 H         138.0953  146.4357  160.9649 H       1  UNL1        0.2922
     24 O         142.1876  141.5397  164.0944 O.3     1  UNL1       -0.4433
     25 C         140.9365  139.4981  160.9296 C.3     1  UNL1        0.2438
     26 C         139.9629  138.5528  161.5688 C.3     1  UNL1        0.1816
     27 O         139.2214  137.5572  160.7269 O.3     1  UNL1       -0.3785
     28 C         139.7309  138.6031  163.0499 C.3     1  UNL1        0.1494
     29 C         138.7573  137.6579  163.6891 C.3     1  UNL1        0.0349
     30 O         140.4724  139.5988  163.8918 O.3     1  UNL1       -0.3177
     31 C         141.4460  140.5441  163.2525 C.3     1  UNL1        0.3333
     32 C         141.6780  140.4937  161.7715 C.3     1  UNL1        0.2803
     33 H         138.6371  137.0275  161.2917 H       1  UNL1        0.2106
     34 O         141.1685  139.4477  159.4485 O.3     1  UNL1       -0.4456
     35 C         142.0372  137.6572  157.7783 C.3     1  UNL1        0.1212
     36 C         142.2947  138.6271  158.8933 C.2     1  UNL1        0.3176
     37 O         143.6783  138.7764  159.4528 O.2     1  UNL1       -0.2501
     38 O         142.6516  141.4390  161.1323 O.3     1  UNL1       -0.4417
     39 C         142.2161  142.8248  160.7583 C.2     1  UNL1        0.3178
     40 C         140.8335  143.0583  160.2256 C.3     1  UNL1        0.1212
     41 O         143.1632  143.9771  160.9170 O.2     1  UNL1       -0.2501
@<TRIPOS>BOND
     1    35    36    1
     2    36    37    2
     3    36    34    1
     4    25    34    1
     5    25    26    1
     6    26    27    1
     7    26    28    1
     8    28    29    1
     9    28    30    1
    10    30    31    1
    11    31    24    1
    12    24     1    1
    13     1     2   ar
    14     2    16    1
    15    16    17   ar
    16    17    18   ar
    17    18    19   ar
    18    19    20    1
    19    19    21   ar
    20    21    22   ar
    21     2     3   ar
    22     3     4   ar
    23     4     5   ar
    24     5     6   ar
    25     6     7    1
    26     6     8   ar
    27     8     9   ar
    28     9    10    1
    29     9    11   ar
    30    11    12   ar
    31    12    13    2
    32    31    32    1
    33    32    38    1
    34    38    39    1
    35    39    40    1
    36    39    41    2
    37    32    25    1
    38    12     1   ar
    39    22    16   ar
    40    11     4   ar
    41    27    33    1
    42    20    23    1
    43     7    14    1
    44    10    15    1
@<TRIPOS>MOLECULE
*****
 41 44 0 0 0
SMALL
GASTEIGER

@<TRIPOS>ATOM
      1 C         141.7204  141.7813  165.4794 C.ar    1  UNL1        0.2144
      2 C         140.8250  142.9506  165.7638 C.ar    1  UNL1        0.1822
      3 O         140.3878  143.2359  167.1700 O.2     1  UNL1       -0.4500
      4 C         140.8460  142.3519  168.2919 C.ar    1  UNL1        0.1545
      5 C         140.4088  142.6371  169.6981 C.ar    1  UNL1        0.0744
      6 C         140.8671  141.7531  170.8199 C.ar    1  UNL1        0.1397
      7 O         140.4299  142.0384  172.2262 O.3     1  UNL1       -0.5053
      8 C         141.7626  140.5838  170.5355 C.ar    1  UNL1        0.0735
      9 C         142.1997  140.2985  169.1293 C.ar    1  UNL1        0.1428
     10 O         143.0952  139.1292  168.8449 O.3     1  UNL1       -0.5052
     11 C         141.7415  141.1826  168.0075 C.ar    1  UNL1        0.1104
     12 C         142.1787  140.8973  166.6012 C.ar    1  UNL1        0.2382
     13 O         143.0741  139.7280  166.3168 O.2     1  UNL1       -0.2830
     14 H         139.8706  142.7688  172.4039 H       1  UNL1        0.2922
     15 H         143.3815  138.5770  169.5456 H       1  UNL1        0.2922
     16 C         140.3667  143.8347  164.6420 C.ar    1  UNL1        0.0379
     17 C         141.3265  144.7943  164.0033 C.ar    1  UNL1        0.0062
     18 C         140.8682  145.6783  162.8815 C.ar    1  UNL1        0.0367
     19 C         139.4501  145.6026  162.3983 C.ar    1  UNL1        0.1337
     20 O         138.9919  146.4867  161.2764 O.3     1  UNL1       -0.5055
     21 C         138.4904  144.6430  163.0370 C.ar    1  UNL1        0.0367
     22 C         138.9486  143.7590  164.1588 C.ar    1  UNL1        0.0062
     23 H         139.5914  147.0861  160.8775 H       1  UNL1        0.2922
     24 O         142.1576  141.4961  164.0731 O.3     1  UNL1       -0.4433
     25 C         140.9191  139.3960  160.9417 C.3     1  UNL1        0.2438
     26 C         139.9228  138.4811  161.5900 C.3     1  UNL1        0.1816
     27 O         139.1779  137.4762  160.7623 O.3     1  UNL1       -0.3785
     28 C         139.6713  138.5712  163.0661 C.3     1  UNL1        0.1494
     29 C         138.6750  137.6564  163.7144 C.3     1  UNL1        0.0349
     30 O         140.4163  139.5762  163.8938 O.3     1  UNL1       -0.3177
     31 C         141.4127  140.4911  163.2454 C.3     1  UNL1        0.3333
     32 C         141.6641  140.4009  161.7694 C.3     1  UNL1        0.2803
     33 H         138.5781  136.9692  161.3317 H       1  UNL1        0.2106
     34 O         141.1706  139.3058  159.4657 O.3     1  UNL1       -0.4456
     35 C         140.6098  140.9865  157.5655 C.3     1  UNL1        0.1212
     36 C         140.1844  139.8927  158.4997 C.2     1  UNL1        0.3176
     37 O         138.7731  139.3858  158.4679 O.2     1  UNL1       -0.2501
     38 O         142.6604  141.3158  161.1211 O.3     1  UNL1       -0.4417
     39 C         142.2922  142.7406  160.8306 C.2     1  UNL1        0.3178
     40 C         140.8981  143.0810  160.3941 C.3     1  UNL1        0.1212
     41 O         143.3183  143.8251  160.9765 O.2     1  UNL1       -0.2501
@<TRIPOS>BOND
     1    35    36    1
     2    36    37    2
     3    36    34    1
     4    25    34    1
     5    25    26    1
     6    26    27    1
     7    26    28    1
     8    28    29    1
     9    28    30    1
    10    30    31    1
    11    31    24    1
    12    24     1    1
    13     1     2   ar
    14     2    16    1
    15    16    17   ar
    16    17    18   ar
    17    18    19   ar
    18    19    20    1
    19    19    21   ar
    20    21    22   ar
    21     2     3   ar
    22     3     4   ar
    23     4     5   ar
    24     5     6   ar
    25     6     7    1
    26     6     8   ar
    27     8     9   ar
    28     9    10    1
    29     9    11   ar
    30    11    12   ar
    31    12    13    2
    32    31    32    1
    33    32    38    1
    34    38    39    1
    35    39    40    1
    36    39    41    2
    37    32    25    1
    38    12     1   ar
    39    22    16   ar
    40    11     4   ar
    41    27    33    1
    42    20    23    1
    43     7    14    1
    44    10    15    1
@<TRIPOS>MOLECULE
*****
 41 44 0 0 0
SMALL
GASTEIGER

@<TRIPOS>ATOM
      1 C         141.3360  140.4957  165.8194 C.ar    1  UNL1        0.2144
      2 C         142.5710  141.3418  165.9140 C.ar    1  UNL1        0.1822
      3 O         143.0026  141.8931  167.2405 O.2     1  UNL1       -0.4500
      4 C         142.1994  141.5982  168.4726 C.ar    1  UNL1        0.1545
      5 C         142.6310  142.1495  169.7991 C.ar    1  UNL1        0.0744
      6 C         141.8278  141.8546  171.0310 C.ar    1  UNL1        0.1397
      7 O         142.2594  142.4059  172.3577 O.3     1  UNL1       -0.5053
      8 C         140.5928  141.0085  170.9365 C.ar    1  UNL1        0.0735
      9 C         140.1611  140.4572  169.6100 C.ar    1  UNL1        0.1428
     10 O         138.9262  139.6111  169.5154 O.3     1  UNL1       -0.5052
     11 C         140.9644  140.7521  168.3780 C.ar    1  UNL1        0.1104
     12 C         140.5327  140.2008  167.0514 C.ar    1  UNL1        0.2382
     13 O         139.2978  139.3547  166.9568 O.2     1  UNL1       -0.2830
     14 H         143.0309  142.9345  172.4168 H       1  UNL1        0.2922
     15 H         138.4244  139.4269  170.2850 H       1  UNL1        0.2922
     16 C         143.3743  141.6367  164.6820 C.ar    1  UNL1        0.0379
     17 C         144.1823  140.5507  164.0357 C.ar    1  UNL1        0.0062
     18 C         144.9855  140.8456  162.8038 C.ar    1  UNL1        0.0367
     19 C         144.9807  142.2265  162.2180 C.ar    1  UNL1        0.1337
     20 O         145.7840  142.5213  160.9860 O.3     1  UNL1       -0.5055
     21 C         144.1727  143.3125  162.8642 C.ar    1  UNL1        0.0367
     22 C         143.3695  143.0176  164.0962 C.ar    1  UNL1        0.0062
     23 H         146.2888  141.8429  160.5823 H       1  UNL1        0.2922
     24 O         140.9044  139.9444  164.4928 O.3     1  UNL1       -0.4433
     25 C         138.4180  140.9389  161.5638 C.3     1  UNL1        0.2438
     26 C         138.3358  142.4245  161.7539 C.3     1  UNL1        0.1816
     27 O         137.4797  143.2512  160.8409 O.3     1  UNL1       -0.3785
     28 C         139.1099  143.0835  162.8570 C.3     1  UNL1        0.1494
     29 C         139.0277  144.5691  163.0470 C.3     1  UNL1        0.0349
     30 O         139.9660  142.2568  163.7699 O.3     1  UNL1       -0.3177
     31 C         140.0482  140.7711  163.5798 C.3     1  UNL1        0.3333
     32 C         139.2742  140.1122  162.4768 C.3     1  UNL1        0.2803
     33 H         137.5386  144.1843  161.0993 H       1  UNL1        0.2106
     34 O         137.6440  140.2800  160.4608 O.3     1  UNL1       -0.4456
     35 C         139.5823  140.6100  158.7626 C.3     1  UNL1        0.1212
     36 C         138.1277  140.3759  159.0442 C.2     1  UNL1        0.3176
     37 O         137.1568  140.2378  157.9092 O.2     1  UNL1       -0.2501
     38 O         139.3563  138.6266  162.2868 O.3     1  UNL1       -0.4417
     39 C         140.6878  137.9707  162.0698 C.2     1  UNL1        0.3178
     40 C         141.6043  138.4720  160.9934 C.3     1  UNL1        0.1212
     41 O         141.1028  136.8136  162.9294 O.2     1  UNL1       -0.2501
@<TRIPOS>BOND
     1    35    36    1
     2    36    37    2
     3    36    34    1
     4    25    34    1
     5    25    26    1
     6    26    27    1
     7    26    28    1
     8    28    29    1
     9    28    30    1
    10    30    31    1
    11    31    24    1
    12    24     1    1
    13     1     2   ar
    14     2    16    1
    15    16    17   ar
    16    17    18   ar
    17    18    19   ar
    18    19    20    1
    19    19    21   ar
    20    21    22   ar
    21     2     3   ar
    22     3     4   ar
    23     4     5   ar
    24     5     6   ar
    25     6     7    1
    26     6     8   ar
    27     8     9   ar
    28     9    10    1
    29     9    11   ar
    30    11    12   ar
    31    12    13    2
    32    31    32    1
    33    32    38    1
    34    38    39    1
    35    39    40    1
    36    39    41    2
    37    32    25    1
    38    12     1   ar
    39    22    16   ar
    40    11     4   ar
    41    27    33    1
    42    20    23    1
    43     7    14    1
    44    10    15    1
@<TRIPOS>MOLECULE
*****
 41 44 0 0 0
SMALL
GASTEIGER

@<TRIPOS>ATOM
      1 C         141.5949  140.9951  165.5655 C.ar    1  UNL1        0.2144
      2 C         140.4413  140.0730  165.8279 C.ar    1  UNL1        0.1822
      3 O         140.0242  139.7760  167.2378 O.2     1  UNL1       -0.4500
      4 C         140.7608  140.4011  168.3853 C.ar    1  UNL1        0.1545
      5 C         140.3438  140.1041  169.7952 C.ar    1  UNL1        0.0744
      6 C         141.0804  140.7292  170.9426 C.ar    1  UNL1        0.1397
      7 O         140.6634  140.4322  172.3526 O.3     1  UNL1       -0.5053
      8 C         142.2340  141.6513  170.6802 C.ar    1  UNL1        0.0735
      9 C         142.6510  141.9483  169.2703 C.ar    1  UNL1        0.1428
     10 O         143.8046  142.8704  169.0078 O.3     1  UNL1       -0.5052
     11 C         141.9144  141.3232  168.1229 C.ar    1  UNL1        0.1104
     12 C         142.3315  141.6202  166.7129 C.ar    1  UNL1        0.2382
     13 O         143.4851  142.5423  166.4504 O.2     1  UNL1       -0.2830
     14 H         139.9427  139.8562  172.5166 H       1  UNL1        0.2922
     15 H         144.2648  143.2609  169.7246 H       1  UNL1        0.2922
     16 C         139.7047  139.4478  164.6804 C.ar    1  UNL1        0.0379
     17 C         140.1693  138.1385  164.1151 C.ar    1  UNL1        0.0062
     18 C         139.4327  137.5134  162.9676 C.ar    1  UNL1        0.0367
     19 C         138.2315  138.1978  162.3855 C.ar    1  UNL1        0.1337
     20 O         137.4949  137.5726  161.2379 O.3     1  UNL1       -0.5055
     21 C         137.7669  139.5071  162.9508 C.ar    1  UNL1        0.0367
     22 C         138.5035  140.1322  164.0983 C.ar    1  UNL1        0.0062
     23 H         137.7851  136.7547  160.8848 H       1  UNL1        0.2922
     24 O         142.0119  141.2921  164.1555 O.3     1  UNL1       -0.4433
     25 C         141.2961  144.0531  161.3961 C.3     1  UNL1        0.2438
     26 C         139.9562  144.5588  161.8419 C.3     1  UNL1        0.1816
     27 O         139.2710  145.6477  161.0707 O.3     1  UNL1       -0.3785
     28 C         139.3015  143.9756  163.0590 C.3     1  UNL1        0.1494
     29 C         137.9616  144.4814  163.5049 C.3     1  UNL1        0.0349
     30 O         139.9867  142.8867  163.8302 O.3     1  UNL1       -0.3177
     31 C         141.3267  142.3810  163.3843 C.3     1  UNL1        0.3333
     32 C         141.9813  142.9641  162.1672 C.3     1  UNL1        0.2803
     33 H         138.4212  145.8552  161.4899 H       1  UNL1        0.2106
     34 O         141.9508  144.6362  160.1790 O.3     1  UNL1       -0.4456
     35 C         142.1881  143.1915  158.0327 C.3     1  UNL1        0.1212
     36 C         141.4685  144.2526  158.8114 C.2     1  UNL1        0.3176
     37 O         140.2668  144.9301  158.2225 O.2     1  UNL1       -0.2501
     38 O         143.3212  142.4584  161.7214 O.3     1  UNL1       -0.4417
     39 C         144.5715  142.9742  162.3702 C.2     1  UNL1        0.3178
     40 C         145.5525  142.0149  162.9763 C.3     1  UNL1        0.1212
     41 O         144.8406  144.4492  162.4130 O.2     1  UNL1       -0.2501
@<TRIPOS>BOND
     1    35    36    1
     2    36    37    2
     3    36    34    1
     4    25    34    1
     5    25    26    1
     6    26    27    1
     7    26    28    1
     8    28    29    1
     9    28    30    1
    10    30    31    1
    11    31    24    1
    12    24     1    1
    13     1     2   ar
    14     2    16    1
    15    16    17   ar
    16    17    18   ar
    17    18    19   ar
    18    19    20    1
    19    19    21   ar
    20    21    22   ar
    21     2     3   ar
    22     3     4   ar
    23     4     5   ar
    24     5     6   ar
    25     6     7    1
    26     6     8   ar
    27     8     9   ar
    28     9    10    1
    29     9    11   ar
    30    11    12   ar
    31    12    13    2
    32    31    32    1
    33    32    38    1
    34    38    39    1
    35    39    40    1
    36    39    41    2
    37    32    25    1
    38    12     1   ar
    39    22    16   ar
    40    11     4   ar
    41    27    33    1
    42    20    23    1
    43     7    14    1
    44    10    15    1
@<TRIPOS>MOLECULE
*****
 41 44 0 0 0
SMALL
GASTEIGER

@<TRIPOS>ATOM
      1 C         141.0751  140.6821  165.6875 C.ar    1  UNL1        0.2144
      2 C         142.3685  141.4349  165.7896 C.ar    1  UNL1        0.1822
      3 O         142.8605  141.9027  167.1272 O.2     1  UNL1       -0.4500
      4 C         142.0590  141.6177  168.3627 C.ar    1  UNL1        0.1545
      5 C         142.5510  142.0855  169.7003 C.ar    1  UNL1        0.0744
      6 C         141.7495  141.8005  170.9357 C.ar    1  UNL1        0.1397
      7 O         142.2414  142.2683  172.2734 O.3     1  UNL1       -0.5053
      8 C         140.4561  141.0478  170.8336 C.ar    1  UNL1        0.0735
      9 C         139.9641  140.5800  169.4961 C.ar    1  UNL1        0.1428
     10 O         138.6707  139.8272  169.3940 O.3     1  UNL1       -0.5052
     11 C         140.7656  140.8649  168.2606 C.ar    1  UNL1        0.1104
     12 C         140.2737  140.3971  166.9230 C.ar    1  UNL1        0.2382
     13 O         138.9803  139.6444  166.8209 O.2     1  UNL1       -0.2830
     14 H         143.0494  142.7386  172.3372 H       1  UNL1        0.2922
     15 H         138.1701  139.6492  170.1658 H       1  UNL1        0.2922
     16 C         143.1700  141.7199  164.5540 C.ar    1  UNL1        0.0379
     17 C         143.1267  143.0831  163.9299 C.ar    1  UNL1        0.0062
     18 C         143.9281  143.3680  162.6944 C.ar    1  UNL1        0.0367
     19 C         144.7729  142.2897  162.0831 C.ar    1  UNL1        0.1337
     20 O         145.5743  142.5747  160.8475 O.3     1  UNL1       -0.5055
     21 C         144.8161  140.9265  162.7073 C.ar    1  UNL1        0.0367
     22 C         144.0147  140.6415  163.9428 C.ar    1  UNL1        0.0062
     23 H         145.5473  143.4263  160.4576 H       1  UNL1        0.2922
     24 O         140.5832  140.2143  164.3499 O.3     1  UNL1       -0.4433
     25 C         140.5231  141.9617  160.7872 C.3     1  UNL1        0.2438
     26 C         139.7372  143.2021  161.0930 C.3     1  UNL1        0.1816
     27 O         139.4552  144.1981  160.0074 O.3     1  UNL1       -0.3785
     28 C         139.2332  143.4467  162.4845 C.3     1  UNL1        0.1494
     29 C         138.4473  144.6871  162.7904 C.3     1  UNL1        0.0349
     30 O         139.5152  142.4507  163.5702 O.3     1  UNL1       -0.3177
     31 C         140.3012  141.2103  163.2642 C.3     1  UNL1        0.3333
     32 C         140.8051  140.9658  161.8728 C.3     1  UNL1        0.2803
     33 H         138.9403  144.9355  160.3708 H       1  UNL1        0.2106
     34 O         141.0270  141.7172  159.3957 O.3     1  UNL1       -0.4456
     35 C         143.3469  140.8343  158.6285 C.3     1  UNL1        0.1212
     36 C         142.4682  141.9690  159.0649 C.2     1  UNL1        0.3176
     37 O         143.0308  143.3555  159.1705 O.2     1  UNL1       -0.2501
     38 O         141.5910  139.7253  161.5669 O.3     1  UNL1       -0.4417
     39 C         140.8782  138.4341  161.2934 C.2     1  UNL1        0.3178
     40 C         139.8826  138.3495  160.1746 C.3     1  UNL1        0.1212
     41 O         141.1609  137.2277  162.1387 O.2     1  UNL1       -0.2501
@<TRIPOS>BOND
     1    35    36    1
     2    36    37    2
     3    36    34    1
     4    25    34    1
     5    25    26    1
     6    26    27    1
     7    26    28    1
     8    28    29    1
     9    28    30    1
    10    30    31    1
    11    31    24    1
    12    24     1    1
    13     1     2   ar
    14     2    16    1
    15    16    17   ar
    16    17    18   ar
    17    18    19   ar
    18    19    20    1
    19    19    21   ar
    20    21    22   ar
    21     2     3   ar
    22     3     4   ar
    23     4     5   ar
    24     5     6   ar
    25     6     7    1
    26     6     8   ar
    27     8     9   ar
    28     9    10    1
    29     9    11   ar
    30    11    12   ar
    31    12    13    2
    32    31    32    1
    33    32    38    1
    34    38    39    1
    35    39    40    1
    36    39    41    2
    37    32    25    1
    38    12     1   ar
    39    22    16   ar
    40    11     4   ar
    41    27    33    1
    42    20    23    1
    43     7    14    1
    44    10    15    1
@<TRIPOS>MOLECULE
*****
 41 44 0 0 0
SMALL
GASTEIGER

@<TRIPOS>ATOM
      1 C         140.2356  141.5899  166.0912 C.ar    1  UNL1        0.2144
      2 C         140.7574  140.2067  165.8373 C.ar    1  UNL1        0.1822
      3 O         141.5783  139.5112  166.8823 O.2     1  UNL1       -0.4500
      4 C         141.8776  140.1989  168.1814 C.ar    1  UNL1        0.1545
      5 C         142.6985  139.5033  169.2265 C.ar    1  UNL1        0.0744
      6 C         142.9977  140.1910  170.5255 C.ar    1  UNL1        0.1397
      7 O         143.8187  139.4955  171.5707 O.3     1  UNL1       -0.5053
      8 C         142.4759  141.5742  170.7795 C.ar    1  UNL1        0.0735
      9 C         141.6550  142.2697  169.7345 C.ar    1  UNL1        0.1428
     10 O         141.1332  143.6529  169.9885 O.3     1  UNL1       -0.5052
     11 C         141.3558  141.5820  168.4354 C.ar    1  UNL1        0.1104
     12 C         140.5348  142.2776  167.3903 C.ar    1  UNL1        0.2382
     13 O         140.0130  143.6608  167.6443 O.2     1  UNL1       -0.2830
     14 H         144.1447  138.6314  171.4121 H       1  UNL1        0.2922
     15 H         141.3201  144.0825  170.8000 H       1  UNL1        0.2922
     16 C         140.4582  139.5191  164.5381 C.ar    1  UNL1        0.0379
     17 C         141.1662  139.9420  163.2852 C.ar    1  UNL1        0.0062
     18 C         140.8669  139.2543  161.9862 C.ar    1  UNL1        0.0367
     19 C         139.8597  138.1438  161.9401 C.ar    1  UNL1        0.1337
     20 O         139.5605  137.4561  160.6409 O.3     1  UNL1       -0.5055
     21 C         139.1517  137.7209  163.1930 C.ar    1  UNL1        0.0367
     22 C         139.4509  138.4085  164.4920 C.ar    1  UNL1        0.0062
     23 H         140.0027  137.7203  159.8583 H       1  UNL1        0.2922
     24 O         139.4146  142.2854  165.0461 O.3     1  UNL1       -0.4433
     25 C         140.0332  144.0636  161.5525 C.3     1  UNL1        0.2438
     26 C         141.4446  144.5418  161.7237 C.3     1  UNL1        0.1816
     27 O         142.1213  145.2939  160.6163 O.3     1  UNL1       -0.3785
     28 C         142.1794  144.2678  163.0025 C.3     1  UNL1        0.1494
     29 C         143.5907  144.7460  163.1738 C.3     1  UNL1        0.0349
     30 O         141.5027  143.5157  164.1100 O.3     1  UNL1       -0.3177
     31 C         140.0912  143.0376  163.9386 C.3     1  UNL1        0.3333
     32 C         139.3566  143.3115  162.6599 C.3     1  UNL1        0.2803
     33 H         143.0226  145.5279  160.8880 H       1  UNL1        0.2106
     34 O         139.2986  144.3375  160.2738 O.3     1  UNL1       -0.4456
     35 C         140.5793  142.5853  158.8456 C.3     1  UNL1        0.1212
     36 C         139.3143  143.3243  159.1679 C.2     1  UNL1        0.3176
     37 O         138.0651  143.0499  158.3842 O.2     1  UNL1       -0.2501
     38 O         137.9452  142.8333  162.4887 O.3     1  UNL1       -0.4417
     39 C         137.6639  141.3689  162.3262 C.2     1  UNL1        0.3178
     40 C         137.7696  140.7305  160.9729 C.3     1  UNL1        0.1212
     41 O         137.2771  140.5429  163.5170 O.2     1  UNL1       -0.2501
@<TRIPOS>BOND
     1    35    36    1
     2    36    37    2
     3    36    34    1
     4    25    34    1
     5    25    26    1
     6    26    27    1
     7    26    28    1
     8    28    29    1
     9    28    30    1
    10    30    31    1
    11    31    24    1
    12    24     1    1
    13     1     2   ar
    14     2    16    1
    15    16    17   ar
    16    17    18   ar
    17    18    19   ar
    18    19    20    1
    19    19    21   ar
    20    21    22   ar
    21     2     3   ar
    22     3     4   ar
    23     4     5   ar
    24     5     6   ar
    25     6     7    1
    26     6     8   ar
    27     8     9   ar
    28     9    10    1
    29     9    11   ar
    30    11    12   ar
    31    12    13    2
    32    31    32    1
    33    32    38    1
    34    38    39    1
    35    39    40    1
    36    39    41    2
    37    32    25    1
    38    12     1   ar
    39    22    16   ar
    40    11     4   ar
    41    27    33    1
    42    20    23    1
    43     7    14    1
    44    10    15    1
@<TRIPOS>MOLECULE
*****
 41 44 0 0 0
SMALL
GASTEIGER

@<TRIPOS>ATOM
      1 C         142.1375  141.6426  164.9695 C.ar    1  UNL1        0.2144
      2 C         141.0000  142.5558  165.3190 C.ar    1  UNL1        0.1822
      3 O         140.3299  142.4414  166.6561 O.2     1  UNL1       -0.4500
      4 C         140.7972  141.4136  167.6437 C.ar    1  UNL1        0.1545
      5 C         140.1271  141.2992  168.9808 C.ar    1  UNL1        0.0744
      6 C         140.5945  140.2714  169.9684 C.ar    1  UNL1        0.1397
      7 O         139.9244  140.1569  171.3055 O.3     1  UNL1       -0.5053
      8 C         141.7319  139.3582  169.6188 C.ar    1  UNL1        0.0735
      9 C         142.4020  139.4726  168.2818 C.ar    1  UNL1        0.1428
     10 O         143.5394  138.5593  167.9322 O.3     1  UNL1       -0.5052
     11 C         141.9347  140.5003  167.2942 C.ar    1  UNL1        0.1104
     12 C         142.6048  140.6148  165.9570 C.ar    1  UNL1        0.2382
     13 O         143.7422  139.7015  165.6075 O.2     1  UNL1       -0.2830
     14 H         139.2138  140.7274  171.5239 H       1  UNL1        0.2922
     15 H         143.8314  137.9173  168.5492 H       1  UNL1        0.2922
     16 C         140.5327  143.5836  164.3314 C.ar    1  UNL1        0.0379
     17 C         141.3840  144.7832  164.0378 C.ar    1  UNL1        0.0062
     18 C         140.9167  145.8109  163.0502 C.ar    1  UNL1        0.0367
     19 C         139.5980  145.6390  162.3562 C.ar    1  UNL1        0.1337
     20 O         139.1307  146.6668  161.3685 O.3     1  UNL1       -0.5055
     21 C         138.7467  144.4394  162.6498 C.ar    1  UNL1        0.0367
     22 C         139.2141  143.4117  163.6373 C.ar    1  UNL1        0.0062
     23 H         139.6625  147.4161  161.1851 H       1  UNL1        0.2922
     24 O         142.8076  141.7571  163.6323 O.3     1  UNL1       -0.4433
     25 C         140.3883  140.2854  160.8518 C.3     1  UNL1        0.2438
     26 C         140.3773  141.4113  159.8608 C.3     1  UNL1        0.1816
     27 O         139.5672  141.2960  158.6036 O.3     1  UNL1       -0.3785
     28 C         141.1765  142.6525  160.1269 C.3     1  UNL1        0.1494
     29 C         141.1655  143.7784  159.1359 C.3     1  UNL1        0.0349
     30 O         141.9866  142.7678  161.3841 O.3     1  UNL1       -0.3177
     31 C         141.9975  141.6418  162.3752 C.3     1  UNL1        0.3333
     32 C         141.1983  140.4006  162.1090 C.3     1  UNL1        0.2803
     33 H         139.6701  142.1044  158.0775 H       1  UNL1        0.2106
     34 O         139.5891  139.0442  160.5857 O.3     1  UNL1       -0.4456
     35 C         137.0625  139.5784  160.8700 C.3     1  UNL1        0.1212
     36 C         138.2868  138.8239  161.2966 C.2     1  UNL1        0.3176
     37 O         138.2087  137.8492  162.4340 O.2     1  UNL1       -0.2501
     38 O         141.2093  139.2748  163.1000 O.3     1  UNL1       -0.4417
     39 C         141.9381  138.0028  162.7821 C.2     1  UNL1        0.3178
     40 C         143.3125  138.0553  162.1836 C.3     1  UNL1        0.1212
     41 O         141.2923  136.6782  163.0626 O.2     1  UNL1       -0.2501
@<TRIPOS>BOND
     1    35    36    1
     2    36    37    2
     3    36    34    1
     4    25    34    1
     5    25    26    1
     6    26    27    1
     7    26    28    1
     8    28    29    1
     9    28    30    1
    10    30    31    1
    11    31    24    1
    12    24     1    1
    13     1     2   ar
    14     2    16    1
    15    16    17   ar
    16    17    18   ar
    17    18    19   ar
    18    19    20    1
    19    19    21   ar
    20    21    22   ar
    21     2     3   ar
    22     3     4   ar
    23     4     5   ar
    24     5     6   ar
    25     6     7    1
    26     6     8   ar
    27     8     9   ar
    28     9    10    1
    29     9    11   ar
    30    11    12   ar
    31    12    13    2
    32    31    32    1
    33    32    38    1
    34    38    39    1
    35    39    40    1
    36    39    41    2
    37    32    25    1
    38    12     1   ar
    39    22    16   ar
    40    11     4   ar
    41    27    33    1
    42    20    23    1
    43     7    14    1
    44    10    15    1
@<TRIPOS>MOLECULE
*****
 41 44 0 0 0
SMALL
GASTEIGER

@<TRIPOS>ATOM
      1 C         141.6933  141.4123  165.4451 C.ar    1  UNL1        0.2144
      2 C         140.2940  140.9431  165.7130 C.ar    1  UNL1        0.1822
      3 O         139.7435  140.9836  167.1078 O.2     1  UNL1       -0.4500
      4 C         140.5924  141.4933  168.2346 C.ar    1  UNL1        0.1545
      5 C         140.0419  141.5338  169.6293 C.ar    1  UNL1        0.0744
      6 C         140.8907  142.0435  170.7561 C.ar    1  UNL1        0.1397
      7 O         140.3403  142.0840  172.1509 O.3     1  UNL1       -0.5053
      8 C         142.2900  142.5127  170.4881 C.ar    1  UNL1        0.0735
      9 C         142.8405  142.4723  169.0934 C.ar    1  UNL1        0.1428
     10 O         144.2398  142.9415  168.8254 O.3     1  UNL1       -0.5052
     11 C         141.9917  141.9625  167.9666 C.ar    1  UNL1        0.1104
     12 C         142.5421  141.9220  166.5718 C.ar    1  UNL1        0.2382
     13 O         143.9414  142.3913  166.3038 O.2     1  UNL1       -0.2830
     14 H         139.4662  141.7909  172.3183 H       1  UNL1        0.2922
     15 H         144.7700  143.2599  169.5293 H       1  UNL1        0.2922
     16 C         139.4451  140.4333  164.5862 C.ar    1  UNL1        0.0379
     17 C         139.7056  139.0748  164.0062 C.ar    1  UNL1        0.0062
     18 C         138.8568  138.5651  162.8794 C.ar    1  UNL1        0.0367
     19 C         137.7475  139.4140  162.3326 C.ar    1  UNL1        0.1337
     20 O         136.8987  138.9042  161.2058 O.3     1  UNL1       -0.5055
     21 C         137.4871  140.7725  162.9126 C.ar    1  UNL1        0.0367
     22 C         138.3359  141.2822  164.0394 C.ar    1  UNL1        0.0062
     23 H         137.0614  138.0556  160.8434 H       1  UNL1        0.2922
     24 O         142.2437  141.3718  164.0502 O.3     1  UNL1       -0.4433
     25 C         141.3921  142.9015  160.4887 C.3     1  UNL1        0.2438
     26 C         140.5388  144.0715  160.8793 C.3     1  UNL1        0.1816
     27 O         139.9705  144.9714  159.8224 O.3     1  UNL1       -0.3785
     28 C         140.2537  144.3417  162.3270 C.3     1  UNL1        0.1494
     29 C         139.4003  145.5118  162.7177 C.3     1  UNL1        0.0349
     30 O         140.8220  143.4418  163.3840 O.3     1  UNL1       -0.3177
     31 C         141.6754  142.2717  162.9933 C.3     1  UNL1        0.3333
     32 C         141.9605  142.0015  161.5456 C.3     1  UNL1        0.2803
     33 H         139.4472  145.6724  160.2416 H       1  UNL1        0.2106
     34 O         141.6772  142.6313  159.0410 O.3     1  UNL1       -0.4456
     35 C         143.8683  142.7385  157.6489 C.3     1  UNL1        0.1212
     36 C         142.7200  143.4327  158.3197 C.2     1  UNL1        0.3176
     37 O         142.6147  144.9281  158.2691 O.2     1  UNL1       -0.2501
     38 O         142.8138  140.8315  161.1549 O.3     1  UNL1       -0.4417
     39 C         142.2111  139.4609  161.0634 C.2     1  UNL1        0.3178
     40 C         141.1879  139.1605  160.0085 C.3     1  UNL1        0.1212
     41 O         142.6315  138.3908  162.0268 O.2     1  UNL1       -0.2501
@<TRIPOS>BOND
     1    35    36    1
     2    36    37    2
     3    36    34    1
     4    25    34    1
     5    25    26    1
     6    26    27    1
     7    26    28    1
     8    28    29    1
     9    28    30    1
    10    30    31    1
    11    31    24    1
    12    24     1    1
    13     1     2   ar
    14     2    16    1
    15    16    17   ar
    16    17    18   ar
    17    18    19   ar
    18    19    20    1
    19    19    21   ar
    20    21    22   ar
    21     2     3   ar
    22     3     4   ar
    23     4     5   ar
    24     5     6   ar
    25     6     7    1
    26     6     8   ar
    27     8     9   ar
    28     9    10    1
    29     9    11   ar
    30    11    12   ar
    31    12    13    2
    32    31    32    1
    33    32    38    1
    34    38    39    1
    35    39    40    1
    36    39    41    2
    37    32    25    1
    38    12     1   ar
    39    22    16   ar
    40    11     4   ar
    41    27    33    1
    42    20    23    1
    43     7    14    1
    44    10    15    1
