@<TRIPOS>MOLECULE
*****
 24 26 0 0 0
SMALL
GASTEIGER

@<TRIPOS>ATOM
      1 C         141.2416  141.6821  168.5663 C.ar    1  UNL1        0.0207
      2 C         140.5901  142.7950  167.8002 C.ar    1  UNL1        0.0780
      3 N         140.8808  142.5871  166.3434 N.ar    1  UNL1       -0.3051
      4 C         141.7120  141.3457  166.2092 C.ar    1  UNL1        0.0638
      5 C         142.2946  140.6523  165.0135 C.ar    1  UNL1        0.0184
      6 C         143.1002  139.3997  165.1916 C.ar    1  UNL1        0.0129
      7 C         143.3233  138.8404  166.5655 C.ar    1  UNL1        0.0578
      8 CL        144.1289  137.5876  166.7435 Cl      1  UNL1       -0.0822
      9 C         142.7407  139.5337  167.7612 C.ar    1  UNL1        0.0126
     10 C         141.9350  140.7864  167.5830 C.ar    1  UNL1        0.0166
     11 C         140.4210  143.4662  165.2184 C.ar    1  UNL1        0.0642
     12 C         141.4267  144.1922  164.3747 C.ar    1  UNL1        0.0198
     13 C         140.9669  145.0713  163.2496 C.ar    1  UNL1        0.0311
     14 C         139.5015  145.2244  162.9682 C.ar    1  UNL1        0.1402
     15 F         139.0417  146.1035  161.8431 F       1  UNL1       -0.2042
     16 C         138.4959  144.4985  163.8118 C.ar    1  UNL1        0.0311
     17 C         138.9557  143.6194  164.9369 C.ar    1  UNL1        0.0198
     18 C         141.2061  141.4974  170.0545 C.3     1  UNL1        0.1084
     19 O         141.1705  141.3126  171.5427 O.3     1  UNL1       -0.3826
     20 H         141.7128  141.9961  171.9664 H       1  UNL1        0.2107
     21 C         143.5932  142.5223  170.0872 C.3     1  UNL1        0.0028
     22 C         142.1081  142.6838  170.2234 C.3     1  UNL1        0.0312
     23 C         140.3040  140.3109  169.8856 C.3     1  UNL1        0.0312
     24 C         138.8207  140.4676  170.0451 C.3     1  UNL1        0.0028
@<TRIPOS>BOND
     1    21    22    1
     2    22    18    1
     3    18    19    1
     4    18    23    1
     5    23    24    1
     6    18     1    1
     7     1     2   ar
     8     2     3   ar
     9     3    11    1
    10    11    12   ar
    11    12    13   ar
    12    13    14   ar
    13    14    15    1
    14    14    16   ar
    15    16    17   ar
    16     3     4   ar
    17     4     5   ar
    18     5     6   ar
    19     6     7   ar
    20     7     8    1
    21     7     9   ar
    22     9    10   ar
    23    10     1   ar
    24    17    11   ar
    25    10     4   ar
    26    19    20    1
@<TRIPOS>MOLECULE
*****
 24 26 0 0 0
SMALL
GASTEIGER

@<TRIPOS>ATOM
      1 C         141.2493  141.6887  168.5678 C.ar    1  UNL1        0.0207
      2 C         140.6081  142.8062  167.7997 C.ar    1  UNL1        0.0780
      3 N         140.9040  142.5977  166.3441 N.ar    1  UNL1       -0.3051
      4 C         141.7281  141.3512  166.2125 C.ar    1  UNL1        0.0638
      5 C         142.3118  140.6552  165.0188 C.ar    1  UNL1        0.0184
      6 C         143.1088  139.3975  165.1995 C.ar    1  UNL1        0.0129
      7 C         143.3222  138.8357  166.5739 C.ar    1  UNL1        0.0578
      8 CL        144.1193  137.5779  166.7545 Cl      1  UNL1       -0.0822
      9 C         142.7386  139.5317  167.7675 C.ar    1  UNL1        0.0126
     10 C         141.9415  140.7895  167.5869 C.ar    1  UNL1        0.0166
     11 C         140.4548  143.4805  165.2177 C.ar    1  UNL1        0.0642
     12 C         138.9916  143.6426  164.9295 C.ar    1  UNL1        0.0198
     13 C         138.5423  144.5254  163.8032 C.ar    1  UNL1        0.0311
     14 C         139.5561  145.2462  162.9649 C.ar    1  UNL1        0.1402
     15 F         139.1068  146.1290  161.8385 F       1  UNL1       -0.2042
     16 C         141.0192  145.0841  163.2530 C.ar    1  UNL1        0.0311
     17 C         141.4685  144.2012  164.3794 C.ar    1  UNL1        0.0198
     18 C         141.2060  141.5030  170.0556 C.3     1  UNL1        0.1084
     19 O         141.1627  141.3173  171.5435 O.3     1  UNL1       -0.3826
     20 H         140.6004  140.5567  171.7582 H       1  UNL1        0.2107
     21 C         138.8190  140.4773  170.0692 C.3     1  UNL1        0.0028
     22 C         140.2990  140.3211  169.8817 C.3     1  UNL1        0.0312
     23 C         142.1130  142.6850  170.2296 C.3     1  UNL1        0.0312
     24 C         143.5993  142.5117  170.1253 C.3     1  UNL1        0.0028
@<TRIPOS>BOND
     1    21    22    1
     2    22    18    1
     3    18    19    1
     4    18    23    1
     5    23    24    1
     6    18     1    1
     7     1     2   ar
     8     2     3   ar
     9     3    11    1
    10    11    12   ar
    11    12    13   ar
    12    13    14   ar
    13    14    15    1
    14    14    16   ar
    15    16    17   ar
    16     3     4   ar
    17     4     5   ar
    18     5     6   ar
    19     6     7   ar
    20     7     8    1
    21     7     9   ar
    22     9    10   ar
    23    10     1   ar
    24    17    11   ar
    25    10     4   ar
    26    19    20    1
@<TRIPOS>MOLECULE
*****
 24 26 0 0 0
SMALL
GASTEIGER

@<TRIPOS>ATOM
      1 C         142.1550  141.8487  168.2817 C.ar    1  UNL1        0.0207
      2 C         143.1443  142.3262  167.2602 C.ar    1  UNL1        0.0780
      3 N         142.7147  141.8060  165.9205 N.ar    1  UNL1       -0.3051
      4 C         141.4600  141.0071  166.1139 C.ar    1  UNL1        0.0638
      5 C         140.5878  140.2590  165.1498 C.ar    1  UNL1        0.0184
      6 C         139.3696  139.5373  165.6451 C.ar    1  UNL1        0.0129
      7 C         139.0237  139.5637  167.1044 C.ar    1  UNL1        0.0578
      8 CL        137.8055  138.8420  167.5996 Cl      1  UNL1       -0.0822
      9 C         139.8959  140.3118  168.0685 C.ar    1  UNL1        0.0126
     10 C         141.1141  141.0335  167.5733 C.ar    1  UNL1        0.0166
     11 C         143.4167  142.0431  164.6162 C.ar    1  UNL1        0.0642
     12 C         144.1393  140.9171  163.9379 C.ar    1  UNL1        0.0198
     13 C         144.8413  141.1542  162.6336 C.ar    1  UNL1        0.0311
     14 C         144.8205  142.5171  162.0076 C.ar    1  UNL1        0.1402
     15 F         145.5225  142.7542  160.7034 F       1  UNL1       -0.2042
     16 C         144.0979  143.6430  162.6859 C.ar    1  UNL1        0.0311
     17 C         143.3960  143.4059  163.9902 C.ar    1  UNL1        0.0198
     18 C         142.1990  142.1361  169.7532 C.3     1  UNL1        0.1084
     19 O         142.2430  142.4234  171.2249 O.3     1  UNL1       -0.3826
     20 H         141.6300  143.1461  171.4317 H       1  UNL1        0.2107
     21 C         139.9391  143.2321  170.4178 C.3     1  UNL1        0.0028
     22 C         141.1780  143.2198  169.5721 C.3     1  UNL1        0.0312
     23 C         143.2200  141.0523  169.9344 C.3     1  UNL1        0.0312
     24 C         142.8136  139.7271  170.5078 C.3     1  UNL1        0.0028
@<TRIPOS>BOND
     1    21    22    1
     2    22    18    1
     3    18    19    1
     4    18    23    1
     5    23    24    1
     6    18     1    1
     7     1     2   ar
     8     2     3   ar
     9     3    11    1
    10    11    12   ar
    11    12    13   ar
    12    13    14   ar
    13    14    15    1
    14    14    16   ar
    15    16    17   ar
    16     3     4   ar
    17     4     5   ar
    18     5     6   ar
    19     6     7   ar
    20     7     8    1
    21     7     9   ar
    22     9    10   ar
    23    10     1   ar
    24    17    11   ar
    25    10     4   ar
    26    19    20    1
@<TRIPOS>MOLECULE
*****
 24 26 0 0 0
SMALL
GASTEIGER

@<TRIPOS>ATOM
      1 C         141.5548  141.3670  168.4388 C.ar    1  UNL1        0.0207
      2 C         142.5789  141.9642  167.5198 C.ar    1  UNL1        0.0780
      3 N         142.2287  141.5685  166.1160 N.ar    1  UNL1       -0.3051
      4 C         140.9882  140.7268  166.1673 C.ar    1  UNL1        0.0638
      5 C         140.1840  140.0577  165.0924 C.ar    1  UNL1        0.0184
      6 C         138.9634  139.2641  165.4530 C.ar    1  UNL1        0.0129
      7 C         138.5469  139.1395  166.8887 C.ar    1  UNL1        0.0578
      8 CL        137.3262  138.3458  167.2493 Cl      1  UNL1       -0.0822
      9 C         139.3510  139.8086  167.9636 C.ar    1  UNL1        0.0126
     10 C         140.5717  140.6023  167.6030 C.ar    1  UNL1        0.0166
     11 C         142.9861  141.9479  164.8780 C.ar    1  UNL1        0.0642
     12 C         144.2945  141.2838  164.5661 C.ar    1  UNL1        0.0198
     13 C         145.0518  141.6632  163.3282 C.ar    1  UNL1        0.0311
     14 C         144.5009  142.7067  162.4021 C.ar    1  UNL1        0.1402
     15 F         145.2582  143.0861  161.1642 F       1  UNL1       -0.2042
     16 C         143.1925  143.3707  162.7140 C.ar    1  UNL1        0.0311
     17 C         142.4352  142.9913  163.9520 C.ar    1  UNL1        0.0198
     18 C         141.5199  141.5096  169.9316 C.3     1  UNL1        0.1084
     19 O         141.4850  141.6522  171.4244 O.3     1  UNL1       -0.3826
     20 H         142.2030  141.1306  171.8160 H       1  UNL1        0.2107
     21 C         142.5179  139.1173  170.1080 C.3     1  UNL1        0.0028
     22 C         142.7100  140.6038  170.0459 C.3     1  UNL1        0.0312
     23 C         140.3298  142.4154  169.8173 C.3     1  UNL1        0.0312
     24 C         140.5099  143.9030  169.8877 C.3     1  UNL1        0.0028
@<TRIPOS>BOND
     1    21    22    1
     2    22    18    1
     3    18    19    1
     4    18    23    1
     5    23    24    1
     6    18     1    1
     7     1     2   ar
     8     2     3   ar
     9     3    11    1
    10    11    12   ar
    11    12    13   ar
    12    13    14   ar
    13    14    15    1
    14    14    16   ar
    15    16    17   ar
    16     3     4   ar
    17     4     5   ar
    18     5     6   ar
    19     6     7   ar
    20     7     8    1
    21     7     9   ar
    22     9    10   ar
    23    10     1   ar
    24    17    11   ar
    25    10     4   ar
    26    19    20    1
@<TRIPOS>MOLECULE
*****
 24 26 0 0 0
SMALL
GASTEIGER

@<TRIPOS>ATOM
      1 C         139.0273  139.7042  165.7237 C.ar    1  UNL1        0.0207
      2 C         138.8781  140.6526  164.5712 C.ar    1  UNL1        0.0780
      3 N         139.4491  141.9768  164.9838 N.ar    1  UNL1       -0.3051
      4 C         139.9512  141.8469  166.3913 C.ar    1  UNL1        0.0638
      5 C         140.6122  142.8261  167.3155 C.ar    1  UNL1        0.0184
      6 C         141.0124  142.4007  168.6971 C.ar    1  UNL1        0.0129
      7 C         140.7517  140.9960  169.1544 C.ar    1  UNL1        0.0578
      8 CL        141.1520  140.5706  170.5361 Cl      1  UNL1       -0.0822
      9 C         140.0908  140.0169  168.2301 C.ar    1  UNL1        0.0126
     10 C         139.6906  140.4423  166.8486 C.ar    1  UNL1        0.0166
     11 C         139.5077  143.2139  164.1375 C.ar    1  UNL1        0.0642
     12 C         140.8117  143.9301  163.9453 C.ar    1  UNL1        0.0198
     13 C         140.8703  145.1672  163.0990 C.ar    1  UNL1        0.0311
     14 C         139.6250  145.6881  162.4449 C.ar    1  UNL1        0.1402
     15 F         139.6837  146.9252  161.5986 F       1  UNL1       -0.2042
     16 C         138.3211  144.9720  162.6371 C.ar    1  UNL1        0.0311
     17 C         138.2625  143.7349  163.4834 C.ar    1  UNL1        0.0198
     18 C         138.5901  138.2695  165.7472 C.3     1  UNL1        0.1084
     19 O         138.1529  136.8348  165.7707 O.3     1  UNL1       -0.3826
     20 H         137.5223  136.7007  166.4955 H       1  UNL1        0.2107
     21 C         136.9298  137.4481  167.5690 C.3     1  UNL1        0.0028
     22 C         137.7104  138.5569  166.9276 C.3     1  UNL1        0.0312
     23 C         139.4698  137.9820  164.5668 C.3     1  UNL1        0.0312
     24 C         140.8124  137.3446  164.7694 C.3     1  UNL1        0.0028
@<TRIPOS>BOND
     1    21    22    1
     2    22    18    1
     3    18    19    1
     4    18    23    1
     5    23    24    1
     6    18     1    1
     7     1     2   ar
     8     2     3   ar
     9     3    11    1
    10    11    12   ar
    11    12    13   ar
    12    13    14   ar
    13    14    15    1
    14    14    16   ar
    15    16    17   ar
    16     3     4   ar
    17     4     5   ar
    18     5     6   ar
    19     6     7   ar
    20     7     8    1
    21     7     9   ar
    22     9    10   ar
    23    10     1   ar
    24    17    11   ar
    25    10     4   ar
    26    19    20    1
@<TRIPOS>MOLECULE
*****
 24 26 0 0 0
SMALL
GASTEIGER

@<TRIPOS>ATOM
      1 C         141.1198  141.6857  167.7185 C.ar    1  UNL1        0.0207
      2 C         141.6199  142.6461  166.6805 C.ar    1  UNL1        0.0780
      3 N         140.8438  142.4104  165.4187 N.ar    1  UNL1       -0.3051
      4 C         139.8639  141.3044  165.6769 C.ar    1  UNL1        0.0638
      5 C         138.8384  140.6473  164.8015 C.ar    1  UNL1        0.0184
      6 C         137.9835  139.5423  165.3473 C.ar    1  UNL1        0.0129
      7 C         138.1541  139.0944  166.7687 C.ar    1  UNL1        0.0578
      8 CL        137.2991  137.9893  167.3145 Cl      1  UNL1       -0.0822
      9 C         139.1796  139.7515  167.6442 C.ar    1  UNL1        0.0126
     10 C         140.0345  140.8565  167.0983 C.ar    1  UNL1        0.0166
     11 C         141.0170  143.1508  164.1258 C.ar    1  UNL1        0.0642
     12 C         140.7128  144.6180  164.0550 C.ar    1  UNL1        0.0198
     13 C         140.8860  145.3584  162.7620 C.ar    1  UNL1        0.0311
     14 C         141.3634  144.6317  161.5398 C.ar    1  UNL1        0.1402
     15 F         141.5366  145.3721  160.2468 F       1  UNL1       -0.2042
     16 C         141.6676  143.1646  161.6105 C.ar    1  UNL1        0.0311
     17 C         141.4944  142.4242  162.9035 C.ar    1  UNL1        0.0198
     18 C         141.6175  141.5740  169.1291 C.3     1  UNL1        0.1084
     19 O         142.1153  141.4623  170.5397 O.3     1  UNL1       -0.3826
     20 H         141.7580  142.1935  171.0675 H       1  UNL1        0.2107
     21 C         139.7604  142.7444  170.5189 C.3     1  UNL1        0.0028
     22 C         140.8556  142.8128  169.4960 C.3     1  UNL1        0.0312
     23 C         142.3795  140.3352  168.7622 C.3     1  UNL1        0.0312
     24 C         142.4494  139.1854  169.7230 C.3     1  UNL1        0.0028
@<TRIPOS>BOND
     1    21    22    1
     2    22    18    1
     3    18    19    1
     4    18    23    1
     5    23    24    1
     6    18     1    1
     7     1     2   ar
     8     2     3   ar
     9     3    11    1
    10    11    12   ar
    11    12    13   ar
    12    13    14   ar
    13    14    15    1
    14    14    16   ar
    15    16    17   ar
    16     3     4   ar
    17     4     5   ar
    18     5     6   ar
    19     6     7   ar
    20     7     8    1
    21     7     9   ar
    22     9    10   ar
    23    10     1   ar
    24    17    11   ar
    25    10     4   ar
    26    19    20    1
@<TRIPOS>MOLECULE
*****
 24 26 0 0 0
SMALL
GASTEIGER

@<TRIPOS>ATOM
      1 C         139.8858  140.4482  166.5001 C.ar    1  UNL1        0.0207
      2 C         139.4814  141.5697  165.5898 C.ar    1  UNL1        0.0780
      3 N         140.6163  141.8317  164.6446 N.ar    1  UNL1       -0.3051
      4 C         141.7222  140.8722  164.9708 C.ar    1  UNL1        0.0638
      5 C         143.0819  140.6666  164.3718 C.ar    1  UNL1        0.0184
      6 C         143.9901  139.6060  164.9195 C.ar    1  UNL1        0.0129
      7 C         143.5387  138.7509  166.0663 C.ar    1  UNL1        0.0578
      8 CL        144.4470  137.6902  166.6140 Cl      1  UNL1       -0.0822
      9 C         142.1790  138.9565  166.6653 C.ar    1  UNL1        0.0126
     10 C         141.2707  140.0171  166.1176 C.ar    1  UNL1        0.0166
     11 C         140.6411  142.8709  163.5632 C.ar    1  UNL1        0.0642
     12 C         140.9082  144.3061  163.9080 C.ar    1  UNL1        0.0198
     13 C         140.9329  145.3453  162.8266 C.ar    1  UNL1        0.0311
     14 C         140.6906  144.9492  161.4002 C.ar    1  UNL1        0.1402
     15 F         140.7154  145.9884  160.3188 F       1  UNL1       -0.2042
     16 C         140.4235  143.5141  161.0554 C.ar    1  UNL1        0.0311
     17 C         140.3988  142.4749  162.1369 C.ar    1  UNL1        0.0198
     18 C         139.0518  139.8609  167.5998 C.3     1  UNL1        0.1084
     19 O         138.2178  139.2735  168.6996 O.3     1  UNL1       -0.3826
     20 H         138.4794  139.6644  169.5479 H       1  UNL1        0.2107
     21 C         139.6817  140.3886  170.0646 C.3     1  UNL1        0.0028
     22 C         139.7758  140.7098  168.6023 C.3     1  UNL1        0.0312
     23 C         138.3278  139.0119  166.5974 C.3     1  UNL1        0.0312
     24 C         137.4221  137.9101  167.0622 C.3     1  UNL1        0.0028
@<TRIPOS>BOND
     1    21    22    1
     2    22    18    1
     3    18    19    1
     4    18    23    1
     5    23    24    1
     6    18     1    1
     7     1     2   ar
     8     2     3   ar
     9     3    11    1
    10    11    12   ar
    11    12    13   ar
    12    13    14   ar
    13    14    15    1
    14    14    16   ar
    15    16    17   ar
    16     3     4   ar
    17     4     5   ar
    18     5     6   ar
    19     6     7   ar
    20     7     8    1
    21     7     9   ar
    22     9    10   ar
    23    10     1   ar
    24    17    11   ar
    25    10     4   ar
    26    19    20    1
@<TRIPOS>MOLECULE
*****
 24 26 0 0 0
SMALL
GASTEIGER

@<TRIPOS>ATOM
      1 C         140.8382  142.2252  166.8570 C.ar    1  UNL1        0.0207
      2 C         141.1013  143.2418  165.7858 C.ar    1  UNL1        0.0780
      3 N         140.2954  142.8625  164.5789 N.ar    1  UNL1       -0.3051
      4 C         139.5342  141.6115  164.9041 C.ar    1  UNL1        0.0638
      5 C         138.5790  140.7802  164.1002 C.ar    1  UNL1        0.0184
      6 C         137.9593  139.5550  164.7042 C.ar    1  UNL1        0.0129
      7 C         138.2948  139.1612  166.1121 C.ar    1  UNL1        0.0578
      8 CL        137.6750  137.9359  166.7161 Cl      1  UNL1       -0.0822
      9 C         139.2500  139.9925  166.9161 C.ar    1  UNL1        0.0126
     10 C         139.8697  141.2177  166.3121 C.ar    1  UNL1        0.0166
     11 C         140.2573  143.6039  163.2755 C.ar    1  UNL1        0.0642
     12 C         140.7043  142.9266  162.0139 C.ar    1  UNL1        0.0198
     13 C         140.6662  143.6680  160.7105 C.ar    1  UNL1        0.0311
     14 C         140.1811  145.0868  160.6687 C.ar    1  UNL1        0.1402
     15 F         140.1430  145.8282  159.3653 F       1  UNL1       -0.2042
     16 C         139.7341  145.7641  161.9302 C.ar    1  UNL1        0.0311
     17 C         139.7722  145.0226  163.2336 C.ar    1  UNL1        0.0198
     18 C         141.4383  142.2176  168.2317 C.3     1  UNL1        0.1084
     19 O         142.0383  142.2099  169.6065 O.3     1  UNL1       -0.3826
     20 H         142.8069  141.6184  169.6205 H       1  UNL1        0.2107
     21 C         142.6883  139.9558  168.4999 C.3     1  UNL1        0.0028
     22 C         142.4867  141.2500  167.7687 C.3     1  UNL1        0.0312
     23 C         140.3898  143.1852  168.6947 C.3     1  UNL1        0.0312
     24 C         140.5604  143.9096  169.9972 C.3     1  UNL1        0.0028
@<TRIPOS>BOND
     1    21    22    1
     2    22    18    1
     3    18    19    1
     4    18    23    1
     5    23    24    1
     6    18     1    1
     7     1     2   ar
     8     2     3   ar
     9     3    11    1
    10    11    12   ar
    11    12    13   ar
    12    13    14   ar
    13    14    15    1
    14    14    16   ar
    15    16    17   ar
    16     3     4   ar
    17     4     5   ar
    18     5     6   ar
    19     6     7   ar
    20     7     8    1
    21     7     9   ar
    22     9    10   ar
    23    10     1   ar
    24    17    11   ar
    25    10     4   ar
    26    19    20    1
@<TRIPOS>MOLECULE
*****
 24 26 0 0 0
SMALL
GASTEIGER

@<TRIPOS>ATOM
      1 C         139.6801  143.0218  163.9648 C.ar    1  UNL1        0.0207
      2 C         139.2404  142.6078  165.3378 C.ar    1  UNL1        0.0780
      3 N         140.4682  142.3801  166.1687 N.ar    1  UNL1       -0.3051
      4 C         141.6669  142.6534  165.3093 C.ar    1  UNL1        0.0638
      5 C         143.1389  142.5924  165.5910 C.ar    1  UNL1        0.0184
      6 C         144.1238  142.9280  164.5106 C.ar    1  UNL1        0.0129
      7 C         143.6367  143.3246  163.1485 C.ar    1  UNL1        0.0578
      8 CL        144.6217  143.6603  162.0681 Cl      1  UNL1       -0.0822
      9 C         142.1647  143.3857  162.8667 C.ar    1  UNL1        0.0126
     10 C         141.1798  143.0501  163.9471 C.ar    1  UNL1        0.0166
     11 C         140.4932  141.9539  167.6067 C.ar    1  UNL1        0.0642
     12 C         140.5188  140.4954  167.9563 C.ar    1  UNL1        0.0198
     13 C         140.5438  140.0692  169.3943 C.ar    1  UNL1        0.0311
     14 C         140.5431  141.1014  170.4826 C.ar    1  UNL1        0.1402
     15 F         140.5680  140.6752  171.9206 F       1  UNL1       -0.2042
     16 C         140.5174  142.5599  170.1330 C.ar    1  UNL1        0.0311
     17 C         140.4925  142.9861  168.6950 C.ar    1  UNL1        0.0198
     18 C         138.7785  143.3500  162.8118 C.3     1  UNL1        0.1084
     19 O         137.8769  143.6782  161.6587 O.3     1  UNL1       -0.3826
     20 H         137.7194  144.6350  161.6335 H       1  UNL1        0.2107
     21 C         139.4064  145.7981  162.2092 C.3     1  UNL1        0.0028
     22 C         138.8390  144.8033  163.1781 C.3     1  UNL1        0.0312
     23 C         138.7180  141.8967  162.4454 C.3     1  UNL1        0.0312
     24 C         137.4336  141.1372  162.5990 C.3     1  UNL1        0.0028
@<TRIPOS>BOND
     1    21    22    1
     2    22    18    1
     3    18    19    1
     4    18    23    1
     5    23    24    1
     6    18     1    1
     7     1     2   ar
     8     2     3   ar
     9     3    11    1
    10    11    12   ar
    11    12    13   ar
    12    13    14   ar
    13    14    15    1
    14    14    16   ar
    15    16    17   ar
    16     3     4   ar
    17     4     5   ar
    18     5     6   ar
    19     6     7   ar
    20     7     8    1
    21     7     9   ar
    22     9    10   ar
    23    10     1   ar
    24    17    11   ar
    25    10     4   ar
    26    19    20    1
