@<TRIPOS>MOLECULE
*****
 32 36 0 0 0
SMALL
GASTEIGER

@<TRIPOS>ATOM
      1 N         139.8726  142.7940  160.6636 N.ar    1  UNL1       -0.2694
      2 C         140.2190  141.3345  160.6543 C.ar    1  UNL1        0.1816
      3 N         139.6388  140.7126  161.8898 N.ar    1  UNL1       -0.2194
      4 C         138.9338  141.7877  162.6626 C.ar    1  UNL1        0.1483
      5 C         138.1789  141.7614  163.9586 C.ar    1  UNL1        0.1510
      6 N         137.5685  143.0215  164.4967 N.ar    1  UNL1       -0.2076
      7 C         137.7130  144.3078  163.7388 C.ar    1  UNL1        0.2015
      8 N         138.4679  144.3341  162.4429 N.ar    1  UNL1       -0.2048
      9 C         139.0783  143.0740  161.9048 C.ar    1  UNL1        0.1690
     10 C4*       140.1725  145.2505  157.6733 C.3     1  UNL1        0.1757
     11 O4*       139.3976  144.2402  158.4663 O.3     1  UNL1       -0.3309
     12 C1*       140.2537  143.7973  159.6157 C.3     1  UNL1        0.2371
     13 C2*       141.5577  144.5339  159.5330 C.3     1  UNL1        0.1895
     14 O2*       142.7097  144.3966  160.4838 O.3     1  UNL1       -0.3779
     15 C3*       141.5075  145.4320  158.3326 C.3     1  UNL1        0.1713
     16 O3*       142.6005  146.3504  157.8723 O.3     1  UNL1       -0.3794
     17 H2*       143.4305  144.9830  160.2053 H       1  UNL1        0.2106
     18 H3*       143.3581  146.2784  158.4739 H       1  UNL1        0.2105
     19 O5*       140.2587  147.2980  156.0765 O.3     1  UNL1       -0.3794
     20 C5*       139.6960  145.9554  156.4381 C.3     1  UNL1        0.1693
     21 H5*       139.8465  147.6111  155.2562 H       1  UNL1        0.2105
     22 N         138.0343  140.4749  164.7164 N.pl3   1  UNL1       -0.3184
     23 H         137.1734  139.9974  164.7159 H       1  UNL1        0.1482
     24 C         139.2016  139.9162  165.4750 C.3     1  UNL1        0.0703
     25 C         139.5949  140.5141  166.7932 C.3     1  UNL1        0.0179
     26 C         139.4815  140.0884  168.2270 C.3     1  UNL1        0.0016
     27 C         140.1512  141.3597  168.6574 C.3     1  UNL1        0.0001
     28 C         140.2647  141.7854  167.2236 C.3     1  UNL1        0.0016
     29 C         139.9754  138.7595  164.9153 C.3     1  UNL1        0.0179
     30 C         141.4275  138.3904  164.8431 C.3     1  UNL1        0.0016
     31 C         141.0698  137.1237  164.1238 C.3     1  UNL1        0.0001
     32 C         139.6177  137.4927  164.1959 C.3     1  UNL1        0.0016
@<TRIPOS>BOND
     1    19    20    1
     2    10    20    1
     3    10    11    1
     4    11    12    1
     5    12     1    1
     6     1     2   ar
     7     2     3   ar
     8     3     4   ar
     9     4     5   ar
    10     5    22    1
    11    22    24    1
    12    24    25    1
    13    25    26    1
    14    26    27    1
    15    27    28    1
    16    24    29    1
    17    29    30    1
    18    30    31    1
    19    31    32    1
    20     5     6   ar
    21     6     7   ar
    22     7     8   ar
    23     8     9   ar
    24    12    13    1
    25    13    14    1
    26    13    15    1
    27    15    16    1
    28    15    10    1
    29     9     1   ar
    30     9     4   ar
    31    28    25    1
    32    32    29    1
    33    19    21    1
    34    22    23    1
    35    14    17    1
    36    16    18    1
@<TRIPOS>MOLECULE
*****
 32 36 0 0 0
SMALL
GASTEIGER

@<TRIPOS>ATOM
      1 N         139.8979  142.8459  160.6856 N.ar    1  UNL1       -0.2694
      2 C         140.2401  141.3859  160.6513 C.ar    1  UNL1        0.1816
      3 N         139.6561  140.7440  161.8747 N.ar    1  UNL1       -0.2194
      4 C         138.9529  141.8074  162.6652 C.ar    1  UNL1        0.1483
      5 C         138.1959  141.7606  163.9593 C.ar    1  UNL1        0.1510
      6 N         137.5883  143.0129  164.5185 N.ar    1  UNL1       -0.2076
      7 C         137.7378  144.3119  163.7836 C.ar    1  UNL1        0.2015
      8 N         138.4948  144.3587  162.4895 N.ar    1  UNL1       -0.2048
      9 C         139.1024  143.1064  161.9303 C.ar    1  UNL1        0.1690
     10 C4*       140.1887  145.3984  157.7760 C.3     1  UNL1        0.1757
     11 O4*       139.3966  144.4044  158.5725 O.3     1  UNL1       -0.3309
     12 C1*       140.2835  143.8663  159.6560 C.3     1  UNL1        0.2371
     13 C2*       141.6238  144.5279  159.5292 C.3     1  UNL1        0.1895
     14 O2*       142.8137  144.2852  160.4096 O.3     1  UNL1       -0.3779
     15 C3*       141.5651  145.4748  158.3672 C.3     1  UNL1        0.1713
     16 O3*       142.6862  146.3452  157.8818 O.3     1  UNL1       -0.3794
     17 H2*       143.5531  144.8390  160.1137 H       1  UNL1        0.2106
     18 H3*       143.4685  146.2048  158.4378 H       1  UNL1        0.2105
     19 O5*       139.3112  147.6211  156.7564 O.3     1  UNL1       -0.3794
     20 C5*       139.6916  146.1790  156.5956 C.3     1  UNL1        0.1693
     21 H5*       139.0132  147.9739  155.9034 H       1  UNL1        0.2105
     22 N         138.0464  140.4615  164.6942 N.pl3   1  UNL1       -0.3184
     23 H         137.1833  139.9880  164.6865 H       1  UNL1        0.1482
     24 C         139.2121  139.8839  165.4409 C.3     1  UNL1        0.0703
     25 C         139.9710  138.7247  164.8661 C.3     1  UNL1        0.0179
     26 C         141.4087  138.2971  164.8588 C.3     1  UNL1        0.0016
     27 C         141.0442  137.0854  164.0532 C.3     1  UNL1        0.0001
     28 C         139.6065  137.5130  164.0606 C.3     1  UNL1        0.0016
     29 C         139.6188  140.4654  166.7625 C.3     1  UNL1        0.0179
     30 C         140.2880  141.7338  167.2023 C.3     1  UNL1        0.0016
     31 C         140.1941  141.2878  168.6314 C.3     1  UNL1        0.0001
     32 C         139.5249  140.0195  168.1916 C.3     1  UNL1        0.0016
@<TRIPOS>BOND
     1    19    20    1
     2    10    20    1
     3    10    11    1
     4    11    12    1
     5    12     1    1
     6     1     2   ar
     7     2     3   ar
     8     3     4   ar
     9     4     5   ar
    10     5    22    1
    11    22    24    1
    12    24    25    1
    13    25    26    1
    14    26    27    1
    15    27    28    1
    16    24    29    1
    17    29    30    1
    18    30    31    1
    19    31    32    1
    20     5     6   ar
    21     6     7   ar
    22     7     8   ar
    23     8     9   ar
    24    12    13    1
    25    13    14    1
    26    13    15    1
    27    15    16    1
    28    15    10    1
    29     9     1   ar
    30     9     4   ar
    31    28    25    1
    32    32    29    1
    33    19    21    1
    34    22    23    1
    35    14    17    1
    36    16    18    1
@<TRIPOS>MOLECULE
*****
 32 36 0 0 0
SMALL
GASTEIGER

@<TRIPOS>ATOM
      1 N         140.1750  143.6816  162.0262 N.ar    1  UNL1       -0.2694
      2 C         138.8144  143.1856  162.4170 C.ar    1  UNL1        0.1816
      3 N         138.8983  142.6580  163.8186 N.ar    1  UNL1       -0.2194
      4 C         140.3109  142.8279  164.2940 C.ar    1  UNL1        0.1483
      5 C         140.9806  142.4883  165.5925 C.ar    1  UNL1        0.1510
      6 N         142.4392  142.7813  165.7833 N.ar    1  UNL1       -0.2076
      7 C         143.2282  143.4139  164.6755 C.ar    1  UNL1        0.2015
      8 N         142.5585  143.7535  163.3770 N.ar    1  UNL1       -0.2048
      9 C         141.0998  143.4605  163.1862 C.ar    1  UNL1        0.1690
     10 C4*       140.4225  145.5082  158.6103 C.3     1  UNL1        0.1757
     11 O4*       139.6415  145.0997  159.8240 O.3     1  UNL1       -0.3309
     12 C1*       140.5456  144.2916  160.7069 C.3     1  UNL1        0.2371
     13 C2*       141.8856  144.2007  160.0389 C.3     1  UNL1        0.1895
     14 O2*       143.0901  143.4838  160.5728 O.3     1  UNL1       -0.3779
     15 C3*       141.8095  144.9526  158.7431 C.3     1  UNL1        0.1713
     16 O3*       142.9246  145.1194  157.7539 O.3     1  UNL1       -0.3794
     17 H2*       143.8260  143.5783  159.9479 H       1  UNL1        0.2106
     18 H3*       143.7162  144.6628  158.0789 H       1  UNL1        0.2105
     19 O5*       140.8416  146.7674  156.3768 O.3     1  UNL1       -0.3794
     20 C5*       139.9072  146.3282  157.4650 C.3     1  UNL1        0.1693
     21 H5*       140.3513  147.2848  155.7190 H       1  UNL1        0.2105
     22 N         140.1915  141.8556  166.7004 N.pl3   1  UNL1       -0.3184
     23 H         139.5533  142.3953  167.2206 H       1  UNL1        0.1482
     24 C         140.3749  140.4006  167.0155 C.3     1  UNL1        0.0703
     25 C         139.7037  139.3596  166.1695 C.3     1  UNL1        0.0179
     26 C         138.3003  138.8484  166.0313 C.3     1  UNL1        0.0016
     27 C         138.7546  137.8873  164.9730 C.3     1  UNL1        0.0001
     28 C         140.1580  138.3985  165.1112 C.3     1  UNL1        0.0016
     29 C         141.2294  139.9866  168.1768 C.3     1  UNL1        0.0179
     30 C         142.6458  139.5199  168.3381 C.3     1  UNL1        0.0016
     31 C         142.4380  139.4012  169.8189 C.3     1  UNL1        0.0001
     32 C         141.0216  139.8679  169.6576 C.3     1  UNL1        0.0016
@<TRIPOS>BOND
     1    19    20    1
     2    10    20    1
     3    10    11    1
     4    11    12    1
     5    12     1    1
     6     1     2   ar
     7     2     3   ar
     8     3     4   ar
     9     4     5   ar
    10     5    22    1
    11    22    24    1
    12    24    25    1
    13    25    26    1
    14    26    27    1
    15    27    28    1
    16    24    29    1
    17    29    30    1
    18    30    31    1
    19    31    32    1
    20     5     6   ar
    21     6     7   ar
    22     7     8   ar
    23     8     9   ar
    24    12    13    1
    25    13    14    1
    26    13    15    1
    27    15    16    1
    28    15    10    1
    29     9     1   ar
    30     9     4   ar
    31    28    25    1
    32    32    29    1
    33    19    21    1
    34    22    23    1
    35    14    17    1
    36    16    18    1
@<TRIPOS>MOLECULE
*****
 32 36 0 0 0
SMALL
GASTEIGER

@<TRIPOS>ATOM
      1 N         141.4604  143.7288  162.0909 N.ar    1  UNL1       -0.2694
      2 C         142.6570  143.5626  162.9800 C.ar    1  UNL1        0.1816
      3 N         142.1771  143.0852  164.3186 N.ar    1  UNL1       -0.2194
      4 C         140.6839  142.9563  164.2567 C.ar    1  UNL1        0.1483
      5 C         139.6704  142.5281  165.2762 C.ar    1  UNL1        0.1510
      6 N         138.2139  142.4976  164.9190 N.ar    1  UNL1       -0.2076
      7 C         137.7709  142.8954  163.5422 C.ar    1  UNL1        0.2015
      8 N         138.7845  143.3236  162.5227 N.ar    1  UNL1       -0.2048
      9 C         140.2410  143.3540  162.8800 C.ar    1  UNL1        0.1690
     10 C4*       142.0401  144.3903  158.3104 C.3     1  UNL1        0.1757
     11 O4*       142.3495  143.6396  159.5716 O.3     1  UNL1       -0.3309
     12 C1*       141.4797  144.1889  160.6634 C.3     1  UNL1        0.2371
     13 C2*       140.6327  145.2791  160.0768 C.3     1  UNL1        0.1895
     14 O2*       139.6176  146.1006  160.8148 O.3     1  UNL1       -0.3779
     15 C3*       140.9790  145.4035  158.6226 C.3     1  UNL1        0.1713
     16 O3*       140.3710  146.3713  157.6512 O.3     1  UNL1       -0.3794
     17 H2*       139.2101  146.7353  160.2049 H       1  UNL1        0.2106
     18 H3*       139.7097  146.9148  158.1074 H       1  UNL1        0.2105
     19 O5*       142.7190  145.2779  155.9650 O.3     1  UNL1       -0.3794
     20 C5*       142.6794  144.1670  156.9721 C.3     1  UNL1        0.1693
     21 H5*       143.1637  144.9691  155.1602 H       1  UNL1        0.2105
     22 N         140.1134  142.1303  166.6531 N.pl3   1  UNL1       -0.3184
     23 H         140.5559  142.7880  167.2370 H       1  UNL1        0.1482
     24 C         139.8822  140.7306  167.1402 C.3     1  UNL1        0.0703
     25 C         139.5291  139.6461  166.1659 C.3     1  UNL1        0.0179
     26 C         140.2964  138.8122  165.1831 C.3     1  UNL1        0.0016
     27 C         139.0298  138.1125  164.7880 C.3     1  UNL1        0.0001
     28 C         138.2625  138.9465  165.7708 C.3     1  UNL1        0.0016
     29 C         140.0042  140.4153  168.6016 C.3     1  UNL1        0.0179
     30 C         139.0883  140.5054  169.7861 C.3     1  UNL1        0.0016
     31 C         140.1766  139.9694  170.6684 C.3     1  UNL1        0.0001
     32 C         141.0925  139.8793  169.4839 C.3     1  UNL1        0.0016
@<TRIPOS>BOND
     1    19    20    1
     2    10    20    1
     3    10    11    1
     4    11    12    1
     5    12     1    1
     6     1     2   ar
     7     2     3   ar
     8     3     4   ar
     9     4     5   ar
    10     5    22    1
    11    22    24    1
    12    24    25    1
    13    25    26    1
    14    26    27    1
    15    27    28    1
    16    24    29    1
    17    29    30    1
    18    30    31    1
    19    31    32    1
    20     5     6   ar
    21     6     7   ar
    22     7     8   ar
    23     8     9   ar
    24    12    13    1
    25    13    14    1
    26    13    15    1
    27    15    16    1
    28    15    10    1
    29     9     1   ar
    30     9     4   ar
    31    28    25    1
    32    32    29    1
    33    19    21    1
    34    22    23    1
    35    14    17    1
    36    16    18    1
@<TRIPOS>MOLECULE
*****
 32 36 0 0 0
SMALL
GASTEIGER

@<TRIPOS>ATOM
      1 N         140.6616  143.9488  161.1834 N.ar    1  UNL1       -0.2694
      2 C         139.4516  143.2185  161.6862 C.ar    1  UNL1        0.1816
      3 N         139.7382  142.7532  163.0831 N.ar    1  UNL1       -0.2194
      4 C         141.1253  143.1960  163.4437 C.ar    1  UNL1        0.1483
      5 C         141.9425  143.0218  164.6894 C.ar    1  UNL1        0.1510
      6 N         143.3303  143.5864  164.7611 N.ar    1  UNL1       -0.2076
      7 C         143.9009  144.3253  163.5871 C.ar    1  UNL1        0.2015
      8 N         143.0837  144.4995  162.3413 N.ar    1  UNL1       -0.2048
      9 C         141.6960  143.9349  162.2696 C.ar    1  UNL1        0.1690
     10 C4*       140.3595  145.8624  157.8201 C.3     1  UNL1        0.1757
     11 O4*       139.7965  145.4497  159.1477 O.3     1  UNL1       -0.3309
     12 C1*       140.8109  144.5818  159.8318 C.3     1  UNL1        0.2371
     13 C2*       142.0008  144.4582  158.9269 C.3     1  UNL1        0.1895
     14 O2*       143.2503  143.6798  159.2147 O.3     1  UNL1       -0.3779
     15 C3*       141.7218  145.2497  157.6836 C.3     1  UNL1        0.1713
     16 O3*       142.6434  145.4016  156.5099 O.3     1  UNL1       -0.3794
     17 H2*       143.8628  143.7637  158.4673 H       1  UNL1        0.2106
     18 H3*       143.4604  144.9053  156.6740 H       1  UNL1        0.2105
     19 O5*       140.4627  147.3039  155.6611 O.3     1  UNL1       -0.3794
     20 C5*       139.6796  146.7347  156.8068 C.3     1  UNL1        0.1693
     21 H5*       139.8772  147.8404  155.1041 H       1  UNL1        0.2105
     22 N         141.3718  142.2829  165.8635 N.pl3   1  UNL1       -0.3184
     23 H         141.0577  142.7803  166.6529 H       1  UNL1        0.1482
     24 C         141.2797  140.7860  165.8348 C.3     1  UNL1        0.0703
     25 C         139.9513  140.1127  166.0141 C.3     1  UNL1        0.0179
     26 C         139.1255  139.6932  167.1939 C.3     1  UNL1        0.0016
     27 C         138.0727  139.1606  166.2676 C.3     1  UNL1        0.0001
     28 C         138.8986  139.5802  165.0878 C.3     1  UNL1        0.0016
     29 C         142.5160  139.9623  165.6269 C.3     1  UNL1        0.0179
     30 C         143.5770  139.8903  164.5690 C.3     1  UNL1        0.0016
     31 C         144.2644  138.7975  165.3327 C.3     1  UNL1        0.0001
     32 C         143.2034  138.8695  166.3906 C.3     1  UNL1        0.0016
@<TRIPOS>BOND
     1    19    20    1
     2    10    20    1
     3    10    11    1
     4    11    12    1
     5    12     1    1
     6     1     2   ar
     7     2     3   ar
     8     3     4   ar
     9     4     5   ar
    10     5    22    1
    11    22    24    1
    12    24    25    1
    13    25    26    1
    14    26    27    1
    15    27    28    1
    16    24    29    1
    17    29    30    1
    18    30    31    1
    19    31    32    1
    20     5     6   ar
    21     6     7   ar
    22     7     8   ar
    23     8     9   ar
    24    12    13    1
    25    13    14    1
    26    13    15    1
    27    15    16    1
    28    15    10    1
    29     9     1   ar
    30     9     4   ar
    31    28    25    1
    32    32    29    1
    33    19    21    1
    34    22    23    1
    35    14    17    1
    36    16    18    1
@<TRIPOS>MOLECULE
*****
 32 36 0 0 0
SMALL
GASTEIGER

@<TRIPOS>ATOM
      1 N         139.4817  141.0654  166.0229 N.ar    1  UNL1       -0.2694
      2 C         139.1528  139.9820  165.0391 C.ar    1  UNL1        0.1816
      3 N         138.6960  140.6336  163.7676 N.ar    1  UNL1       -0.2194
      4 C         138.7426  142.1198  163.9657 C.ar    1  UNL1        0.1483
      5 C         138.4055  143.2645  163.0568 C.ar    1  UNL1        0.1510
      6 N         138.5541  144.6761  163.5418 N.ar    1  UNL1       -0.2076
      7 C         139.0397  144.9430  164.9357 C.ar    1  UNL1        0.2015
      8 N         139.3768  143.7982  165.8445 N.ar    1  UNL1       -0.2048
      9 C         139.2282  142.3866  165.3595 C.ar    1  UNL1        0.1690
     10 C4*       141.2965  141.0383  169.4540 C.3     1  UNL1        0.1757
     11 O4*       141.1693  141.5312  168.0430 O.3     1  UNL1       -0.3309
     12 C1*       139.9772  140.8632  167.4242 C.3     1  UNL1        0.2371
     13 C2*       139.3676  139.9575  168.4529 C.3     1  UNL1        0.1895
     14 O2*       138.1556  139.0950  168.2608 O.3     1  UNL1       -0.3779
     15 C3*       140.1830  140.0657  169.7073 C.3     1  UNL1        0.1713
     16 O3*       139.9293  139.3304  170.9898 O.3     1  UNL1       -0.3794
     17 H2*       137.9718  138.6086  169.0797 H       1  UNL1        0.2106
     18 H3*       139.1479  138.7647  170.8891 H       1  UNL1        0.2105
     19 O5*       142.3537  140.8633  171.8207 O.3     1  UNL1       -0.3794
     20 C5*       142.3518  141.4464  170.4387 C.3     1  UNL1        0.1693
     21 H5*       143.0964  141.2301  172.3253 H       1  UNL1        0.2105
     22 N         137.9199  142.9976  161.6629 N.pl3   1  UNL1       -0.3184
     23 H         136.9586  143.0524  161.4575 H       1  UNL1        0.1482
     24 C         138.8989  142.6470  160.5818 C.3     1  UNL1        0.0703
     25 C         139.7252  143.7223  159.9409 C.3     1  UNL1        0.0179
     26 C         140.5285  144.8848  160.4444 C.3     1  UNL1        0.0016
     27 C         140.8939  145.2431  159.0344 C.3     1  UNL1        0.0001
     28 C         140.0906  144.0806  158.5308 C.3     1  UNL1        0.0016
     29 C         139.0516  141.2211  160.1418 C.3     1  UNL1        0.0179
     30 C         140.2057  140.3561  159.7298 C.3     1  UNL1        0.0016
     31 C         139.2677  139.2047  159.5195 C.3     1  UNL1        0.0001
     32 C         138.1135  140.0697  159.9315 C.3     1  UNL1        0.0016
@<TRIPOS>BOND
     1    19    20    1
     2    10    20    1
     3    10    11    1
     4    11    12    1
     5    12     1    1
     6     1     2   ar
     7     2     3   ar
     8     3     4   ar
     9     4     5   ar
    10     5    22    1
    11    22    24    1
    12    24    25    1
    13    25    26    1
    14    26    27    1
    15    27    28    1
    16    24    29    1
    17    29    30    1
    18    30    31    1
    19    31    32    1
    20     5     6   ar
    21     6     7   ar
    22     7     8   ar
    23     8     9   ar
    24    12    13    1
    25    13    14    1
    26    13    15    1
    27    15    16    1
    28    15    10    1
    29     9     1   ar
    30     9     4   ar
    31    28    25    1
    32    32    29    1
    33    19    21    1
    34    22    23    1
    35    14    17    1
    36    16    18    1
@<TRIPOS>MOLECULE
*****
 32 36 0 0 0
SMALL
GASTEIGER

@<TRIPOS>ATOM
      1 N         140.1166  143.5741  161.7948 N.ar    1  UNL1       -0.2694
      2 C         138.7793  142.9759  162.1172 C.ar    1  UNL1        0.1816
      3 N         138.8306  142.4571  163.5237 N.ar    1  UNL1       -0.2194
      4 C         140.1996  142.7346  164.0705 C.ar    1  UNL1        0.1483
      5 C         140.8251  142.4479  165.4034 C.ar    1  UNL1        0.1510
      6 N         142.2453  142.8516  165.6678 N.ar    1  UNL1       -0.2076
      7 C         143.0400  143.5419  164.5993 C.ar    1  UNL1        0.2015
      8 N         142.4145  143.8286  163.2664 N.ar    1  UNL1       -0.2048
      9 C         140.9943  143.4250  163.0020 C.ar    1  UNL1        0.1690
     10 C4*       140.4047  145.4280  158.3969 C.3     1  UNL1        0.1757
     11 O4*       139.5977  144.9716  159.5760 O.3     1  UNL1       -0.3309
     12 C1*       140.5075  144.2098  160.4937 C.3     1  UNL1        0.2371
     13 C2*       141.8769  144.1954  159.8816 C.3     1  UNL1        0.1895
     14 O2*       143.0957  143.5427  160.4632 O.3     1  UNL1       -0.3779
     15 C3*       141.8133  144.9483  158.5857 C.3     1  UNL1        0.1713
     16 O3*       142.9575  145.1806  157.6441 O.3     1  UNL1       -0.3794
     17 H2*       143.8505  143.6803  159.8696 H       1  UNL1        0.2106
     18 H3*       143.7588  144.7662  158.0005 H       1  UNL1        0.2105
     19 O5*       140.8576  146.9065  156.3092 O.3     1  UNL1       -0.3794
     20 C5*       139.8930  146.2243  157.2333 C.3     1  UNL1        0.1693
     21 H5*       140.3657  147.3740  155.6161 H       1  UNL1        0.2105
     22 N         140.0302  141.7575  166.4719 N.pl3   1  UNL1       -0.3184
     23 H         139.3292  142.2484  166.9587 H       1  UNL1        0.1482
     24 C         140.3035  140.3193  166.7987 C.3     1  UNL1        0.0703
     25 C         141.1849  139.9686  167.9606 C.3     1  UNL1        0.0179
     26 C         142.6126  139.5354  168.1161 C.3     1  UNL1        0.0016
     27 C         142.4314  139.4726  169.6039 C.3     1  UNL1        0.0001
     28 C         141.0038  139.9058  169.4483 C.3     1  UNL1        0.0016
     29 C         139.6953  139.2317  165.9636 C.3     1  UNL1        0.0179
     30 C         140.1397  138.4341  164.7735 C.3     1  UNL1        0.0016
     31 C         138.8352  137.6937  164.7825 C.3     1  UNL1        0.0001
     32 C         138.3907  138.4914  165.9726 C.3     1  UNL1        0.0016
@<TRIPOS>BOND
     1    19    20    1
     2    10    20    1
     3    10    11    1
     4    11    12    1
     5    12     1    1
     6     1     2   ar
     7     2     3   ar
     8     3     4   ar
     9     4     5   ar
    10     5    22    1
    11    22    24    1
    12    24    25    1
    13    25    26    1
    14    26    27    1
    15    27    28    1
    16    24    29    1
    17    29    30    1
    18    30    31    1
    19    31    32    1
    20     5     6   ar
    21     6     7   ar
    22     7     8   ar
    23     8     9   ar
    24    12    13    1
    25    13    14    1
    26    13    15    1
    27    15    16    1
    28    15    10    1
    29     9     1   ar
    30     9     4   ar
    31    28    25    1
    32    32    29    1
    33    19    21    1
    34    22    23    1
    35    14    17    1
    36    16    18    1
@<TRIPOS>MOLECULE
*****
 32 36 0 0 0
SMALL
GASTEIGER

@<TRIPOS>ATOM
      1 N         141.2904  144.2767  160.9246 N.ar    1  UNL1       -0.2694
      2 C         142.5202  144.1980  161.7799 C.ar    1  UNL1        0.1816
      3 N         142.1325  143.5874  163.0940 N.ar    1  UNL1       -0.2194
      4 C         140.6631  143.2888  163.0509 C.ar    1  UNL1        0.1483
      5 C         139.7318  142.6841  164.0593 C.ar    1  UNL1        0.1510
      6 N         138.2801  142.5053  163.7270 N.ar    1  UNL1       -0.2076
      7 C         137.7597  142.9313  162.3863 C.ar    1  UNL1        0.2015
      8 N         138.6910  143.5361  161.3778 N.ar    1  UNL1       -0.2048
      9 C         140.1427  143.7148  161.7101 C.ar    1  UNL1        0.1690
     10 C4*       140.4459  145.9669  157.5341 C.3     1  UNL1        0.1757
     11 O4*       140.1001  145.6382  158.9561 O.3     1  UNL1       -0.3309
     12 C1*       141.2205  144.8216  159.5289 C.3     1  UNL1        0.2371
     13 C2*       142.2589  144.6458  158.4607 C.3     1  UNL1        0.1895
     14 O2*       143.5493  143.8941  158.6008 O.3     1  UNL1       -0.3779
     15 C3*       141.7801  145.3536  157.2278 C.3     1  UNL1        0.1713
     16 O3*       142.5079  145.4340  155.9187 O.3     1  UNL1       -0.3794
     17 H2*       144.0384  143.9325  157.7639 H       1  UNL1        0.2106
     18 H3*       143.3478  144.9535  155.9857 H       1  UNL1        0.2105
     19 O5*       140.2602  147.6098  155.5301 O.3     1  UNL1       -0.3794
     20 C5*       139.6053  146.7683  156.5849 C.3     1  UNL1        0.1693
     21 H5*       139.5790  148.0592  155.0058 H       1  UNL1        0.2105
     22 N         140.2523  142.2581  165.4001 N.pl3   1  UNL1       -0.3184
     23 H         140.4285  142.9314  166.0964 H       1  UNL1        0.1482
     24 C         140.5043  140.8061  165.6800 C.3     1  UNL1        0.0703
     25 C         139.3903  139.9339  166.1781 C.3     1  UNL1        0.0179
     26 C         138.3113  139.1179  165.5302 C.3     1  UNL1        0.0016
     27 C         137.8148  138.7005  166.8826 C.3     1  UNL1        0.0001
     28 C         138.8937  139.5166  167.5306 C.3     1  UNL1        0.0016
     29 C         141.8705  140.2263  165.4617 C.3     1  UNL1        0.0179
     30 C         142.4351  138.8383  165.3931 C.3     1  UNL1        0.0016
     31 C         143.8024  139.4064  165.1531 C.3     1  UNL1        0.0001
     32 C         143.2379  140.7944  165.2218 C.3     1  UNL1        0.0016
@<TRIPOS>BOND
     1    19    20    1
     2    10    20    1
     3    10    11    1
     4    11    12    1
     5    12     1    1
     6     1     2   ar
     7     2     3   ar
     8     3     4   ar
     9     4     5   ar
    10     5    22    1
    11    22    24    1
    12    24    25    1
    13    25    26    1
    14    26    27    1
    15    27    28    1
    16    24    29    1
    17    29    30    1
    18    30    31    1
    19    31    32    1
    20     5     6   ar
    21     6     7   ar
    22     7     8   ar
    23     8     9   ar
    24    12    13    1
    25    13    14    1
    26    13    15    1
    27    15    16    1
    28    15    10    1
    29     9     1   ar
    30     9     4   ar
    31    28    25    1
    32    32    29    1
    33    19    21    1
    34    22    23    1
    35    14    17    1
    36    16    18    1
@<TRIPOS>MOLECULE
*****
 32 36 0 0 0
SMALL
GASTEIGER

@<TRIPOS>ATOM
      1 N         139.7818  140.9497  165.9036 N.ar    1  UNL1       -0.2694
      2 C         139.4553  139.9119  164.8709 C.ar    1  UNL1        0.1816
      3 N         138.9035  140.6145  163.6660 N.ar    1  UNL1       -0.2194
      4 C         138.8890  142.0866  163.9541 C.ar    1  UNL1        0.1483
      5 C         138.4516  143.2652  163.1357 C.ar    1  UNL1        0.1510
      6 N         138.5571  144.6508  163.7003 N.ar    1  UNL1       -0.2076
      7 C         139.0998  144.8579  165.0832 C.ar    1  UNL1        0.2015
      8 N         139.5372  143.6793  165.9015 N.ar    1  UNL1       -0.2048
      9 C         139.4318  142.2937  165.3370 C.ar    1  UNL1        0.1690
     10 C4*       141.8715  140.6465  169.1604 C.3     1  UNL1        0.1757
     11 O4*       141.7127  141.1156  167.7446 O.3     1  UNL1       -0.3309
     12 C1*       140.3572  140.6891  167.2641 C.3     1  UNL1        0.2371
     13 C2*       139.6782  139.9564  168.3831 C.3     1  UNL1        0.1895
     14 O2*       138.3046  139.3556  168.3380 O.3     1  UNL1       -0.3779
     15 C3*       140.6141  139.9301  169.5551 C.3     1  UNL1        0.1713
     16 O3*       140.3405  139.2982  170.8877 O.3     1  UNL1       -0.3794
     17 H2*       138.1053  138.9400  169.1915 H       1  UNL1        0.2106
     18 H3*       139.4552  138.9020  170.8820 H       1  UNL1        0.2105
     19 O5*       143.4309  139.8441  171.0772 O.3     1  UNL1       -0.3794
     20 C5*       143.0760  140.8568  170.0291 C.3     1  UNL1        0.1693
     21 H5*       144.2305  140.1304  171.5458 H       1  UNL1        0.2105
     22 N         137.9088  143.0580  161.7527 N.pl3   1  UNL1       -0.3184
     23 H         136.9420  143.1393  161.5861 H       1  UNL1        0.1482
     24 C         138.8392  142.7270  160.6237 C.3     1  UNL1        0.0703
     25 C         138.9209  141.3214  160.1066 C.3     1  UNL1        0.0179
     26 C         137.9615  140.1732  159.9996 C.3     1  UNL1        0.0016
     27 C         139.0363  139.3334  159.3754 C.3     1  UNL1        0.0001
     28 C         139.9956  140.4816  159.4824 C.3     1  UNL1        0.0016
     29 C         139.6881  143.8018  160.0117 C.3     1  UNL1        0.0179
     30 C         140.0982  144.1627  158.6147 C.3     1  UNL1        0.0016
     31 C         140.8885  145.3216  159.1461 C.3     1  UNL1        0.0001
     32 C         140.4784  144.9607  160.5431 C.3     1  UNL1        0.0016
@<TRIPOS>BOND
     1    19    20    1
     2    10    20    1
     3    10    11    1
     4    11    12    1
     5    12     1    1
     6     1     2   ar
     7     2     3   ar
     8     3     4   ar
     9     4     5   ar
    10     5    22    1
    11    22    24    1
    12    24    25    1
    13    25    26    1
    14    26    27    1
    15    27    28    1
    16    24    29    1
    17    29    30    1
    18    30    31    1
    19    31    32    1
    20     5     6   ar
    21     6     7   ar
    22     7     8   ar
    23     8     9   ar
    24    12    13    1
    25    13    14    1
    26    13    15    1
    27    15    16    1
    28    15    10    1
    29     9     1   ar
    30     9     4   ar
    31    28    25    1
    32    32    29    1
    33    19    21    1
    34    22    23    1
    35    14    17    1
    36    16    18    1
