@<TRIPOS>MOLECULE
*****
 29 31 0 0 0
SMALL
GASTEIGER

@<TRIPOS>ATOM
      1 N         143.1516  138.8913  158.4391 N.3     1  UNL1       -0.2682
      2 C         143.7333  140.2725  158.5019 C.3     1  UNL1        0.0771
      3 C         144.1150  140.8661  159.8255 C.3     1  UNL1        0.0441
      4 C         143.9150  140.0785  161.0863 C.ar    1  UNL1       -0.0114
      5 C         143.3333  138.6974  161.0236 C.ar    1  UNL1        0.0209
      6 S         143.2532  138.1640  162.4233 S.2     1  UNL1       -0.0753
      7 C         143.7855  139.2156  163.3511 C.ar    1  UNL1        0.0857
      8 C         144.1944  140.3988  162.5248 C.ar    1  UNL1        0.0691
      9 C         142.9516  138.1038  159.7000 C.3     1  UNL1        0.1054
     10 N         143.8904  139.1036  164.8433 N.am    1  UNL1       -0.2629
     11 C         142.9955  139.9266  165.7219 C.2     1  UNL1        0.3085
     12 O         141.9956  140.8615  165.1083 O.2     1  UNL1       -0.2521
     13 N         143.1003  139.8147  167.2140 N.am    1  UNL1       -0.2680
     14 H         144.5466  138.4901  165.2460 H       1  UNL1        0.1569
     15 H         143.7565  139.2011  167.6167 H       1  UNL1        0.1564
     16 C         142.2054  140.6376  168.0926 C.ar    1  UNL1        0.0516
     17 C         140.8223  140.1554  168.4159 C.ar    1  UNL1        0.0156
     18 C         139.9274  140.9783  169.2945 C.ar    1  UNL1        0.0127
     19 C         140.4155  142.2835  169.8497 C.ar    1  UNL1        0.0578
     20 CL        139.5206  143.1064  170.7283 Cl      1  UNL1       -0.0822
     21 C         141.7986  142.7657  169.5264 C.ar    1  UNL1        0.0127
     22 C         142.6935  141.9427  168.6478 C.ar    1  UNL1        0.0156
     23 C         144.7801  141.6778  163.0456 C.2     1  UNL1        0.2442
     24 N         146.1541  141.6833  163.6472 N.am    1  UNL1       -0.3253
     25 O         143.9918  142.9514  162.9647 O.2     1  UNL1       -0.2703
     26 H         146.6716  140.8474  163.7003 H       1  UNL1        0.1453
     27 H         146.5385  142.5227  163.9890 H       1  UNL1        0.1453
     28 C         142.7625  136.8086  156.9355 C.3     1  UNL1        0.0188
     29 C         142.7699  138.2977  157.1155 C.3     1  UNL1        0.0724
@<TRIPOS>BOND
     1    28    29    1
     2    29     1    1
     3     1     2    1
     4     2     3    1
     5     3     4    1
     6     4     5   ar
     7     5     6   ar
     8     6     7   ar
     9     7    10    1
    10    10    11   am
    11    11    12    2
    12    11    13   am
    13    13    16    1
    14    16    17   ar
    15    17    18   ar
    16    18    19   ar
    17    19    20    1
    18    19    21   ar
    19    21    22   ar
    20     7     8   ar
    21     8    23    1
    22    23    24   am
    23    23    25    2
    24     5     9    1
    25     9     1    1
    26     8     4   ar
    27    22    16   ar
    28    10    14    1
    29    13    15    1
    30    24    26    1
    31    24    27    1
@<TRIPOS>MOLECULE
*****
 29 31 0 0 0
SMALL
GASTEIGER

@<TRIPOS>ATOM
      1 N         142.0870  140.7667  167.4615 N.3     1  UNL1       -0.2682
      2 C         140.6738  141.2228  167.6730 C.3     1  UNL1        0.0771
      3 C         140.0846  142.2767  166.7829 C.3     1  UNL1        0.0441
      4 C         140.9085  142.8744  165.6812 C.ar    1  UNL1       -0.0114
      5 C         142.3217  142.4183  165.4697 C.ar    1  UNL1        0.0209
      6 S         142.8875  143.1842  164.3106 S.2     1  UNL1       -0.0753
      7 C         141.8238  144.1136  163.8058 C.ar    1  UNL1        0.0857
      8 C         140.6008  143.9222  164.6529 C.ar    1  UNL1        0.0691
      9 C         142.9109  141.3645  166.3598 C.3     1  UNL1        0.1054
     10 N         141.9594  145.0672  162.6558 N.am    1  UNL1       -0.2629
     11 C         141.6762  144.6018  161.2583 C.2     1  UNL1        0.3085
     12 O         141.2574  143.1828  161.0107 O.2     1  UNL1       -0.2521
     13 N         141.8117  145.5553  160.1083 N.am    1  UNL1       -0.2680
     14 H         142.2342  145.9985  162.8183 H       1  UNL1        0.1569
     15 H         142.0866  146.4866  160.2708 H       1  UNL1        0.1564
     16 C         141.5285  145.0898  158.7107 C.ar    1  UNL1        0.0516
     17 C         142.5510  144.2823  157.9675 C.ar    1  UNL1        0.0156
     18 C         142.2677  143.8169  156.5699 C.ar    1  UNL1        0.0127
     19 C         140.9621  144.1590  155.9156 C.ar    1  UNL1        0.0578
     20 CL        140.6789  143.6936  154.5180 Cl      1  UNL1       -0.0822
     21 C         139.9396  144.9665  156.6589 C.ar    1  UNL1        0.0127
     22 C         140.2228  145.4319  158.0564 C.ar    1  UNL1        0.0156
     23 C         139.2987  144.6506  164.4988 C.2     1  UNL1        0.2442
     24 N         138.5405  145.0968  165.7137 N.am    1  UNL1       -0.3253
     25 O         138.7546  144.9329  163.1298 O.2     1  UNL1       -0.2703
     26 H         138.8975  144.9115  166.6123 H       1  UNL1        0.1453
     27 H         137.6858  145.5748  165.6126 H       1  UNL1        0.1453
     28 C         142.0895  139.4643  169.7095 C.3     1  UNL1        0.0188
     29 C         142.6762  139.7129  168.3516 C.3     1  UNL1        0.0724
@<TRIPOS>BOND
     1    28    29    1
     2    29     1    1
     3     1     2    1
     4     2     3    1
     5     3     4    1
     6     4     5   ar
     7     5     6   ar
     8     6     7   ar
     9     7    10    1
    10    10    11   am
    11    11    12    2
    12    11    13   am
    13    13    16    1
    14    16    17   ar
    15    17    18   ar
    16    18    19   ar
    17    19    20    1
    18    19    21   ar
    19    21    22   ar
    20     7     8   ar
    21     8    23    1
    22    23    24   am
    23    23    25    2
    24     5     9    1
    25     9     1    1
    26     8     4   ar
    27    22    16   ar
    28    10    14    1
    29    13    15    1
    30    24    26    1
    31    24    27    1
@<TRIPOS>MOLECULE
*****
 29 31 0 0 0
SMALL
GASTEIGER

@<TRIPOS>ATOM
      1 N         138.4249  139.9192  158.6852 N.3     1  UNL1       -0.2682
      2 C         139.6378  139.0402  158.6053 C.3     1  UNL1        0.0771
      3 C         140.2438  138.4827  159.8591 C.3     1  UNL1        0.0441
      4 C         139.6370  138.8041  161.1926 C.ar    1  UNL1       -0.0114
      5 C         138.4242  139.6830  161.2725 C.ar    1  UNL1        0.0209
      6 S         138.0489  139.8250  162.7179 S.2     1  UNL1       -0.0753
      7 C         139.0299  139.0338  163.5313 C.ar    1  UNL1        0.0857
      8 C         140.0114  138.4028  162.5886 C.ar    1  UNL1        0.0691
      9 C         137.8181  140.2406  160.0188 C.3     1  UNL1        0.1054
     10 N         139.0295  138.8974  165.0252 N.am    1  UNL1       -0.2629
     11 C         139.8709  139.8147  165.8622 C.2     1  UNL1        0.3085
     12 O         140.7126  140.8684  165.2054 O.2     1  UNL1       -0.2521
     13 N         139.8705  139.6784  167.3560 N.am    1  UNL1       -0.2680
     14 H         138.4770  138.2059  165.4562 H       1  UNL1        0.1569
     15 H         139.3180  138.9869  167.7870 H       1  UNL1        0.1564
     16 C         140.7119  140.5957  168.1930 C.ar    1  UNL1        0.0516
     17 C         140.1316  141.8755  168.7178 C.ar    1  UNL1        0.0156
     18 C         140.9730  142.7928  169.5548 C.ar    1  UNL1        0.0127
     19 C         142.3946  142.4303  169.8671 C.ar    1  UNL1        0.0578
     20 CL        143.2360  143.3476  170.7042 Cl      1  UNL1       -0.0822
     21 C         142.9748  141.1505  169.3424 C.ar    1  UNL1        0.0127
     22 C         142.1335  140.2332  168.5053 C.ar    1  UNL1        0.0156
     23 C         141.1647  137.5247  162.9743 C.2     1  UNL1        0.2442
     24 N         142.3518  137.4035  162.0653 N.am    1  UNL1       -0.3253
     25 O         141.1311  136.7678  164.2688 O.2     1  UNL1       -0.2703
     26 H         142.3739  137.9003  161.2156 H       1  UNL1        0.1453
     27 H         143.1088  136.8272  162.3184 H       1  UNL1        0.1453
     28 C         137.8040  141.9587  157.2004 C.3     1  UNL1        0.0188
     29 C         137.8189  140.4767  157.4315 C.3     1  UNL1        0.0724
@<TRIPOS>BOND
     1    28    29    1
     2    29     1    1
     3     1     2    1
     4     2     3    1
     5     3     4    1
     6     4     5   ar
     7     5     6   ar
     8     6     7   ar
     9     7    10    1
    10    10    11   am
    11    11    12    2
    12    11    13   am
    13    13    16    1
    14    16    17   ar
    15    17    18   ar
    16    18    19   ar
    17    19    20    1
    18    19    21   ar
    19    21    22   ar
    20     7     8   ar
    21     8    23    1
    22    23    24   am
    23    23    25    2
    24     5     9    1
    25     9     1    1
    26     8     4   ar
    27    22    16   ar
    28    10    14    1
    29    13    15    1
    30    24    26    1
    31    24    27    1
@<TRIPOS>MOLECULE
*****
 29 31 0 0 0
SMALL
GASTEIGER

@<TRIPOS>ATOM
      1 N         139.3302  139.0396  157.5787 N.3     1  UNL1       -0.2682
      2 C         138.6316  140.3639  157.6686 C.3     1  UNL1        0.0771
      3 C         138.2224  140.9068  159.0058 C.3     1  UNL1        0.0441
      4 C         138.5119  140.1254  160.2530 C.ar    1  UNL1       -0.0114
      5 C         139.2105  138.8011  160.1631 C.ar    1  UNL1        0.0209
      6 S         139.3607  138.2608  161.5544 S.2     1  UNL1       -0.0753
      7 C         138.7548  139.2512  162.5041 C.ar    1  UNL1        0.0857
      8 C         138.2302  140.4036  161.6998 C.ar    1  UNL1        0.0691
      9 C         139.6197  138.2582  158.8260 C.3     1  UNL1        0.1054
     10 N         138.6857  139.1135  163.9962 N.am    1  UNL1       -0.2629
     11 C         139.6976  139.8051  164.8609 C.2     1  UNL1        0.3085
     12 O         140.7787  140.6344  164.2334 O.2     1  UNL1       -0.2521
     13 N         139.6285  139.6674  166.3529 N.am    1  UNL1       -0.2680
     14 H         137.9762  138.5692  164.4080 H       1  UNL1        0.1569
     15 H         138.9190  139.1231  166.7647 H       1  UNL1        0.1564
     16 C         140.6405  140.3590  167.2176 C.ar    1  UNL1        0.0516
     17 C         141.8821  139.6342  167.6453 C.ar    1  UNL1        0.0156
     18 C         142.8940  140.3258  168.5100 C.ar    1  UNL1        0.0127
     19 C         142.6643  141.7422  168.9470 C.ar    1  UNL1        0.0578
     20 CL        143.6763  142.4338  169.8117 Cl      1  UNL1       -0.0822
     21 C         141.4227  142.4670  168.5193 C.ar    1  UNL1        0.0127
     22 C         140.4108  141.7754  167.6546 C.ar    1  UNL1        0.0156
     23 C         137.5444  141.6205  162.2463 C.2     1  UNL1        0.2442
     24 N         136.7385  141.5243  163.5078 N.am    1  UNL1       -0.3253
     25 O         137.6645  142.9337  161.5315 O.2     1  UNL1       -0.2703
     26 H         136.6597  140.6624  163.9770 H       1  UNL1        0.1453
     27 H         136.2884  142.3230  163.8665 H       1  UNL1        0.1453
     28 C         141.1044  137.9020  156.0594 C.3     1  UNL1        0.0188
     29 C         139.7394  138.4967  156.2416 C.3     1  UNL1        0.0724
@<TRIPOS>BOND
     1    28    29    1
     2    29     1    1
     3     1     2    1
     4     2     3    1
     5     3     4    1
     6     4     5   ar
     7     5     6   ar
     8     6     7   ar
     9     7    10    1
    10    10    11   am
    11    11    12    2
    12    11    13   am
    13    13    16    1
    14    16    17   ar
    15    17    18   ar
    16    18    19   ar
    17    19    20    1
    18    19    21   ar
    19    21    22   ar
    20     7     8   ar
    21     8    23    1
    22    23    24   am
    23    23    25    2
    24     5     9    1
    25     9     1    1
    26     8     4   ar
    27    22    16   ar
    28    10    14    1
    29    13    15    1
    30    24    26    1
    31    24    27    1
@<TRIPOS>MOLECULE
*****
 29 31 0 0 0
SMALL
GASTEIGER

@<TRIPOS>ATOM
      1 N         141.9700  144.9266  156.5590 N.3     1  UNL1       -0.2682
      2 C         141.0263  145.9171  157.1741 C.3     1  UNL1        0.0771
      3 C         140.7398  145.8661  158.6456 C.3     1  UNL1        0.0441
      4 C         141.3970  144.8247  159.5020 C.ar    1  UNL1       -0.0114
      5 C         142.3406  143.8342  158.8869 C.ar    1  UNL1        0.0209
      6 S         142.8359  142.9283  159.9751 S.2     1  UNL1       -0.0753
      7 C         142.1982  143.3589  161.2627 C.ar    1  UNL1        0.0857
      8 C         141.3089  144.5309  160.9703 C.ar    1  UNL1        0.0691
      9 C         142.6272  143.8852  157.4154 C.3     1  UNL1        0.1054
     10 N         142.4122  142.7282  162.6068 N.am    1  UNL1       -0.2629
     11 C         141.3857  141.7884  163.1662 C.2     1  UNL1        0.3085
     12 O         140.1451  141.4792  162.3816 O.2     1  UNL1       -0.2521
     13 N         141.5996  141.1577  164.5102 N.am    1  UNL1       -0.2680
     14 H         143.2264  142.9311  163.1217 H       1  UNL1        0.1569
     15 H         142.4138  141.3606  165.0252 H       1  UNL1        0.1564
     16 C         140.5731  140.2178  165.0697 C.ar    1  UNL1        0.0516
     17 C         139.7391  140.6317  166.2457 C.ar    1  UNL1        0.0156
     18 C         138.7126  139.6919  166.8051 C.ar    1  UNL1        0.0127
     19 C         138.5200  138.3382  166.1885 C.ar    1  UNL1        0.0578
     20 CL        137.4935  137.3983  166.7480 Cl      1  UNL1       -0.0822
     21 C         139.3540  137.9243  165.0125 C.ar    1  UNL1        0.0127
     22 C         140.3805  138.8641  164.4531 C.ar    1  UNL1        0.0156
     23 C         140.4775  145.2781  161.9706 C.2     1  UNL1        0.2442
     24 N         141.1359  145.9601  163.1331 N.am    1  UNL1       -0.3253
     25 O         138.9878  145.3433  161.8084 O.2     1  UNL1       -0.2703
     26 H         142.1137  145.9173  163.2396 H       1  UNL1        0.1453
     27 H         140.5902  146.4504  163.7896 H       1  UNL1        0.1453
     28 C         143.4021  144.1939  154.5189 C.3     1  UNL1        0.0188
     29 C         142.2565  144.9776  155.0875 C.3     1  UNL1        0.0724
@<TRIPOS>BOND
     1    28    29    1
     2    29     1    1
     3     1     2    1
     4     2     3    1
     5     3     4    1
     6     4     5   ar
     7     5     6   ar
     8     6     7   ar
     9     7    10    1
    10    10    11   am
    11    11    12    2
    12    11    13   am
    13    13    16    1
    14    16    17   ar
    15    17    18   ar
    16    18    19   ar
    17    19    20    1
    18    19    21   ar
    19    21    22   ar
    20     7     8   ar
    21     8    23    1
    22    23    24   am
    23    23    25    2
    24     5     9    1
    25     9     1    1
    26     8     4   ar
    27    22    16   ar
    28    10    14    1
    29    13    15    1
    30    24    26    1
    31    24    27    1
@<TRIPOS>MOLECULE
*****
 29 31 0 0 0
SMALL
GASTEIGER

@<TRIPOS>ATOM
      1 N         141.5852  144.4651  159.0085 N.3     1  UNL1       -0.2682
      2 C         142.5492  143.3723  158.6531 C.3     1  UNL1        0.0771
      3 C         143.3645  142.7131  159.7259 C.3     1  UNL1        0.0441
      4 C         143.2158  143.1469  161.1540 C.ar    1  UNL1       -0.0114
      5 C         142.2518  144.2397  161.5094 C.ar    1  UNL1        0.0209
      6 S         142.3199  144.4538  162.9926 S.2     1  UNL1       -0.0753
      7 C         143.3260  143.4931  163.5538 C.ar    1  UNL1        0.0857
      8 C         143.8797  142.6854  162.4175 C.ar    1  UNL1        0.0691
      9 C         141.4365  144.8989  160.4367 C.3     1  UNL1        0.1054
     10 N         143.7109  143.3630  164.9977 N.am    1  UNL1       -0.2629
     11 C         142.8240  142.6113  165.9455 C.2     1  UNL1        0.3085
     12 O         141.5521  141.9898  165.4493 O.2     1  UNL1       -0.2521
     13 N         143.2088  142.4812  167.3894 N.am    1  UNL1       -0.2680
     14 H         144.5457  143.7709  165.3234 H       1  UNL1        0.1569
     15 H         144.0435  142.8891  167.7151 H       1  UNL1        0.1564
     16 C         142.3218  141.7295  168.3372 C.ar    1  UNL1        0.0516
     17 C         141.1024  142.3909  168.9076 C.ar    1  UNL1        0.0156
     18 C         140.2155  141.6393  169.8554 C.ar    1  UNL1        0.0127
     19 C         140.5479  140.2261  170.2328 C.ar    1  UNL1        0.0578
     20 CL        139.6610  139.4745  171.1805 Cl      1  UNL1       -0.0822
     21 C         141.7673  139.5647  169.6623 C.ar    1  UNL1        0.0127
     22 C         142.6543  140.3163  168.7146 C.ar    1  UNL1        0.0156
     23 C         144.9154  141.6058  162.5256 C.2     1  UNL1        0.2442
     24 N         146.1903  141.8617  163.2735 N.am    1  UNL1       -0.3253
     25 O         144.6764  140.2703  161.8860 O.2     1  UNL1       -0.2703
     26 H         146.3472  142.7383  163.6933 H       1  UNL1        0.1453
     27 H         146.8701  141.1531  163.3445 H       1  UNL1        0.1453
     28 C         141.4337  146.0224  156.9344 C.3     1  UNL1        0.0188
     29 C         140.7699  145.1243  157.9357 C.3     1  UNL1        0.0724
@<TRIPOS>BOND
     1    28    29    1
     2    29     1    1
     3     1     2    1
     4     2     3    1
     5     3     4    1
     6     4     5   ar
     7     5     6   ar
     8     6     7   ar
     9     7    10    1
    10    10    11   am
    11    11    12    2
    12    11    13   am
    13    13    16    1
    14    16    17   ar
    15    17    18   ar
    16    18    19   ar
    17    19    20    1
    18    19    21   ar
    19    21    22   ar
    20     7     8   ar
    21     8    23    1
    22    23    24   am
    23    23    25    2
    24     5     9    1
    25     9     1    1
    26     8     4   ar
    27    22    16   ar
    28    10    14    1
    29    13    15    1
    30    24    26    1
    31    24    27    1
@<TRIPOS>MOLECULE
*****
 29 31 0 0 0
SMALL
GASTEIGER

@<TRIPOS>ATOM
      1 N         141.1345  141.3313  167.5633 N.3     1  UNL1       -0.2682
      2 C         142.5739  141.0805  167.2238 C.3     1  UNL1        0.0771
      3 C         143.2054  141.7905  166.0631 C.3     1  UNL1        0.0441
      4 C         142.3976  142.7512  165.2419 C.ar    1  UNL1       -0.0114
      5 C         140.9582  143.0019  165.5814 C.ar    1  UNL1        0.0209
      6 S         140.4165  143.9968  164.5980 S.2     1  UNL1       -0.0753
      7 C         141.5212  144.3608  163.6509 C.ar    1  UNL1        0.0857
      8 C         142.7455  143.5910  164.0488 C.ar    1  UNL1        0.0691
      9 C         140.3267  142.2919  166.7421 C.3     1  UNL1        0.1054
     10 N         141.4194  145.3254  162.5066 N.am    1  UNL1       -0.2629
     11 C         141.3293  144.8132  161.0996 C.2     1  UNL1        0.3085
     12 O         141.3409  143.3363  160.8370 O.2     1  UNL1       -0.2521
     13 N         141.2275  145.7777  159.9554 N.am    1  UNL1       -0.2680
     14 H         141.4117  146.2947  162.6790 H       1  UNL1        0.1569
     15 H         141.2198  146.7469  160.1278 H       1  UNL1        0.1564
     16 C         141.1373  145.2654  158.5485 C.ar    1  UNL1        0.0516
     17 C         139.9639  144.4311  158.1278 C.ar    1  UNL1        0.0156
     18 C         139.8738  143.9189  156.7208 C.ar    1  UNL1        0.0127
     19 C         140.9571  144.2409  155.7346 C.ar    1  UNL1        0.0578
     20 CL        140.8670  143.7287  154.3276 Cl      1  UNL1       -0.0822
     21 C         142.1305  145.0752  156.1553 C.ar    1  UNL1        0.0127
     22 C         142.2206  145.5874  157.5622 C.ar    1  UNL1        0.0156
     23 C         144.0830  143.6506  163.3724 C.2     1  UNL1        0.2442
     24 N         145.0447  142.5077  163.5101 N.am    1  UNL1       -0.3253
     25 O         144.4589  144.8530  162.5583 O.2     1  UNL1       -0.2703
     26 H         144.7980  141.7184  164.0444 H       1  UNL1        0.1453
     27 H         145.9225  142.5468  163.0661 H       1  UNL1        0.1453
     28 C         141.3424  139.7680  169.6280 C.3     1  UNL1        0.0188
     29 C         140.5030  140.6213  168.7239 C.3     1  UNL1        0.0724
@<TRIPOS>BOND
     1    28    29    1
     2    29     1    1
     3     1     2    1
     4     2     3    1
     5     3     4    1
     6     4     5   ar
     7     5     6   ar
     8     6     7   ar
     9     7    10    1
    10    10    11   am
    11    11    12    2
    12    11    13   am
    13    13    16    1
    14    16    17   ar
    15    17    18   ar
    16    18    19   ar
    17    19    20    1
    18    19    21   ar
    19    21    22   ar
    20     7     8   ar
    21     8    23    1
    22    23    24   am
    23    23    25    2
    24     5     9    1
    25     9     1    1
    26     8     4   ar
    27    22    16   ar
    28    10    14    1
    29    13    15    1
    30    24    26    1
    31    24    27    1
@<TRIPOS>MOLECULE
*****
 29 31 0 0 0
SMALL
GASTEIGER

@<TRIPOS>ATOM
      1 N         140.9546  139.8896  167.6326 N.3     1  UNL1       -0.2682
      2 C         139.4671  139.8025  167.4604 C.3     1  UNL1        0.0771
      3 C         138.8616  139.9290  166.0939 C.3     1  UNL1        0.0441
      4 C         139.7435  140.1428  164.8996 C.ar    1  UNL1       -0.0114
      5 C         141.2310  140.2299  165.0718 C.ar    1  UNL1        0.0209
      6 S         141.8426  140.4438  163.7188 S.2     1  UNL1       -0.0753
      7 C         140.7330  140.4887  162.7105 C.ar    1  UNL1        0.0857
      8 C         139.4357  140.3027  163.4403 C.ar    1  UNL1        0.0691
      9 C         141.8366  140.1033  166.4383 C.3     1  UNL1        0.1054
     10 N         140.8926  140.6852  161.2320 N.am    1  UNL1       -0.2629
     11 C         140.9994  139.4957  160.3245 C.2     1  UNL1        0.3085
     12 O         140.9466  138.1096  160.8956 O.2     1  UNL1       -0.2521
     13 N         141.1590  139.6921  158.8461 N.am    1  UNL1       -0.2680
     14 H         140.9272  141.5950  160.8572 H       1  UNL1        0.1569
     15 H         141.1936  140.6018  158.4713 H       1  UNL1        0.1564
     16 C         141.2658  138.5025  157.9386 C.ar    1  UNL1        0.0516
     17 C         140.0836  138.0748  157.1204 C.ar    1  UNL1        0.0156
     18 C         140.1904  136.8852  156.2129 C.ar    1  UNL1        0.0127
     19 C         141.4794  136.1233  156.1237 C.ar    1  UNL1        0.0578
     20 CL        141.5862  134.9338  155.2162 Cl      1  UNL1       -0.0822
     21 C         142.6616  136.5510  156.9419 C.ar    1  UNL1        0.0127
     22 C         142.5547  137.7406  157.8494 C.ar    1  UNL1        0.0156
     23 C         138.0703  140.2806  162.8197 C.2     1  UNL1        0.2442
     24 N         136.9755  141.1359  163.3851 N.am    1  UNL1       -0.3253
     25 O         137.7996  139.4031  161.6336 O.2     1  UNL1       -0.2703
     26 H         137.1531  141.7119  164.1636 H       1  UNL1        0.1453
     27 H         136.0793  141.1214  162.9778 H       1  UNL1        0.1453
     28 C         140.6975  139.9054  170.2178 C.3     1  UNL1        0.0188
     29 C         141.5602  139.7630  168.9991 C.3     1  UNL1        0.0724
@<TRIPOS>BOND
     1    28    29    1
     2    29     1    1
     3     1     2    1
     4     2     3    1
     5     3     4    1
     6     4     5   ar
     7     5     6   ar
     8     6     7   ar
     9     7    10    1
    10    10    11   am
    11    11    12    2
    12    11    13   am
    13    13    16    1
    14    16    17   ar
    15    17    18   ar
    16    18    19   ar
    17    19    20    1
    18    19    21   ar
    19    21    22   ar
    20     7     8   ar
    21     8    23    1
    22    23    24   am
    23    23    25    2
    24     5     9    1
    25     9     1    1
    26     8     4   ar
    27    22    16   ar
    28    10    14    1
    29    13    15    1
    30    24    26    1
    31    24    27    1
@<TRIPOS>MOLECULE
*****
 29 31 0 0 0
SMALL
GASTEIGER

@<TRIPOS>ATOM
      1 N         139.0787  141.8370  158.3903 N.3     1  UNL1       -0.2682
      2 C         139.6823  143.1924  158.1695 C.3     1  UNL1        0.0771
      3 C         139.9625  144.0882  159.3396 C.3     1  UNL1        0.0441
      4 C         139.6392  143.6286  160.7304 C.ar    1  UNL1       -0.0114
      5 C         139.0357  142.2733  160.9511 C.ar    1  UNL1        0.0209
      6 S         138.8256  142.0939  162.4255 S.2     1  UNL1       -0.0753
      7 C         139.2992  143.3385  163.1159 C.ar    1  UNL1        0.0857
      8 C         139.8021  144.2870  162.0683 C.ar    1  UNL1        0.0691
      9 C         138.7555  141.3775  159.7810 C.3     1  UNL1        0.1054
     10 N         139.2744  143.5904  164.5945 N.am    1  UNL1       -0.2629
     11 C         140.0567  142.7056  165.5192 C.2     1  UNL1        0.3085
     12 O         140.8638  141.5689  164.9654 O.2     1  UNL1       -0.2521
     13 N         140.0319  142.9574  166.9977 N.am    1  UNL1       -0.2680
     14 H         138.7447  144.3364  164.9579 H       1  UNL1        0.1569
     15 H         139.5022  143.7034  167.3611 H       1  UNL1        0.1564
     16 C         140.8142  142.0726  167.9224 C.ar    1  UNL1        0.0516
     17 C         140.1563  140.8840  168.5583 C.ar    1  UNL1        0.0156
     18 C         140.9385  139.9992  169.4830 C.ar    1  UNL1        0.0127
     19 C         142.3787  140.3030  169.7720 C.ar    1  UNL1        0.0578
     20 CL        143.1610  139.4182  170.6967 Cl      1  UNL1       -0.0822
     21 C         143.0366  141.4916  169.1361 C.ar    1  UNL1        0.0127
     22 C         142.2543  142.3764  168.2114 C.ar    1  UNL1        0.0156
     23 C         140.3684  145.6538  162.3152 C.2     1  UNL1        0.2442
     24 N         141.5791  145.8181  163.1854 N.am    1  UNL1       -0.3253
     25 O         139.7241  146.8565  161.6920 O.2     1  UNL1       -0.2703
     26 H         142.0020  145.0288  163.5945 H       1  UNL1        0.1453
     27 H         141.9508  146.7152  163.3475 H       1  UNL1        0.1453
     28 C         137.6534  141.2452  156.3002 C.3     1  UNL1        0.0188
     29 C         138.7985  140.9412  157.2202 C.3     1  UNL1        0.0724
@<TRIPOS>BOND
     1    28    29    1
     2    29     1    1
     3     1     2    1
     4     2     3    1
     5     3     4    1
     6     4     5   ar
     7     5     6   ar
     8     6     7   ar
     9     7    10    1
    10    10    11   am
    11    11    12    2
    12    11    13   am
    13    13    16    1
    14    16    17   ar
    15    17    18   ar
    16    18    19   ar
    17    19    20    1
    18    19    21   ar
    19    21    22   ar
    20     7     8   ar
    21     8    23    1
    22    23    24   am
    23    23    25    2
    24     5     9    1
    25     9     1    1
    26     8     4   ar
    27    22    16   ar
    28    10    14    1
    29    13    15    1
    30    24    26    1
    31    24    27    1
