@<TRIPOS>MOLECULE
*****
 19 20 0 0 0
SMALL
GASTEIGER

@<TRIPOS>ATOM
      1 C         141.5001  139.0452  165.8717 C.3     1  UNL1        0.0321
      2 C         140.2379  139.5182  166.5297 C.3     1  UNL1        0.0053
      3 C         138.9087  139.0108  166.0545 C.3     1  UNL1        0.0004
      4 C         138.8419  138.0304  164.9211 C.3     1  UNL1        0.0000
      5 C         140.1041  137.5574  164.2631 C.3     1  UNL1        0.0004
      6 C         141.4332  138.0648  164.7384 C.3     1  UNL1        0.0053
      7 C         142.0747  139.9733  166.9006 C.ar    1  UNL1       -0.0207
      8 C         142.4867  141.3620  166.5113 C.ar    1  UNL1       -0.0033
      9 C         143.0613  142.2900  167.5402 C.ar    1  UNL1        0.0119
     10 C         143.2238  141.8293  168.9584 C.ar    1  UNL1        0.0682
     11 CL        143.7984  142.7574  169.9874 Cl      1  UNL1       -0.0814
     12 C         142.8117  140.4406  169.3477 C.ar    1  UNL1        0.0679
     13 CL        142.9743  139.9798  170.7660 Cl      1  UNL1       -0.0814
     14 C         142.2372  139.5126  168.3189 C.ar    1  UNL1        0.0080
     15 C         142.9619  138.8946  165.5710 C.3     1  UNL1        0.0578
     16 C         143.8296  138.0602  166.4659 C.3     1  UNL1        0.0174
     17 C         145.0443  139.7233  164.2569 C.3     1  UNL1        0.0859
     18 N         143.5560  139.5783  164.3754 N.3     1  UNL1       -0.2971
     19 H         143.2445  139.0593  163.5544 H       1  UNL1        0.1233
@<TRIPOS>BOND
     1    17    18    1
     2    18    15    1
     3    15    16    1
     4    15     1    1
     5     1     7    1
     6     7     8   ar
     7     8     9   ar
     8     9    10   ar
     9    10    11    1
    10    10    12   ar
    11    12    13    1
    12    12    14   ar
    13     1     2    1
    14     2     3    1
    15     3     4    1
    16     4     5    1
    17     5     6    1
    18     6     1    1
    19    14     7   ar
    20    18    19    1
@<TRIPOS>MOLECULE
*****
 19 20 0 0 0
SMALL
GASTEIGER

@<TRIPOS>ATOM
      1 C         139.6530  142.2084  165.7827 C.3     1  UNL1        0.0321
      2 C         139.7484  143.6911  165.9888 C.3     1  UNL1        0.0053
      3 C         138.8309  144.6128  165.2413 C.3     1  UNL1        0.0004
      4 C         137.8181  144.0517  164.2876 C.3     1  UNL1        0.0000
      5 C         137.7227  142.5691  164.0815 C.3     1  UNL1        0.0004
      6 C         138.6401  141.6474  164.8290 C.3     1  UNL1        0.0053
      7 C         140.7671  142.2608  166.7858 C.ar    1  UNL1       -0.0207
      8 C         142.1939  142.2462  166.3233 C.ar    1  UNL1       -0.0033
      9 C         143.3080  142.2986  167.3264 C.ar    1  UNL1        0.0119
     10 C         142.9951  142.3656  168.7919 C.ar    1  UNL1        0.0682
     11 CL        144.1093  142.4180  169.7950 Cl      1  UNL1       -0.0814
     12 C         141.5683  142.3803  169.2543 C.ar    1  UNL1        0.0679
     13 CL        141.2555  142.4473  170.7198 Cl      1  UNL1       -0.0814
     14 C         140.4543  142.3279  168.2513 C.ar    1  UNL1        0.0080
     15 C         139.9445  140.7439  165.9249 C.3     1  UNL1        0.0578
     16 C         139.2969  139.9535  167.0230 C.3     1  UNL1        0.0174
     17 C         141.2305  138.6222  165.1538 C.3     1  UNL1        0.0859
     18 N         140.8837  140.0699  164.9691 N.3     1  UNL1       -0.2971
     19 H         140.4717  140.1578  164.0402 H       1  UNL1        0.1233
@<TRIPOS>BOND
     1    17    18    1
     2    18    15    1
     3    15    16    1
     4    15     1    1
     5     1     7    1
     6     7     8   ar
     7     8     9   ar
     8     9    10   ar
     9    10    11    1
    10    10    12   ar
    11    12    13    1
    12    12    14   ar
    13     1     2    1
    14     2     3    1
    15     3     4    1
    16     4     5    1
    17     5     6    1
    18     6     1    1
    19    14     7   ar
    20    18    19    1
@<TRIPOS>MOLECULE
*****
 19 20 0 0 0
SMALL
GASTEIGER

@<TRIPOS>ATOM
      1 C         140.1080  141.4563  167.2520 C.3     1  UNL1        0.0321
      2 C         139.4996  140.3432  168.0524 C.3     1  UNL1        0.0053
      3 C         139.3839  140.4674  169.5427 C.3     1  UNL1        0.0004
      4 C         139.8768  141.7048  170.2327 C.3     1  UNL1        0.0000
      5 C         140.4852  142.8179  169.4323 C.3     1  UNL1        0.0004
      6 C         140.6008  142.6937  167.9420 C.3     1  UNL1        0.0053
      7 C         139.7879  140.4888  166.1512 C.ar    1  UNL1       -0.0207
      8 C         138.6014  140.7269  165.2650 C.ar    1  UNL1       -0.0033
      9 C         138.2813  139.7595  164.1643 C.ar    1  UNL1        0.0119
     10 C         139.1477  138.5539  163.9499 C.ar    1  UNL1        0.0682
     11 CL        138.8276  137.5865  162.8491 Cl      1  UNL1       -0.0814
     12 C         140.3342  138.3158  164.8361 C.ar    1  UNL1        0.0679
     13 CL        141.2006  137.1103  164.6217 Cl      1  UNL1       -0.0814
     14 C         140.6543  139.2833  165.9368 C.ar    1  UNL1        0.0080
     15 C         140.6053  142.2335  166.0693 C.3     1  UNL1        0.0578
     16 C         139.8336  143.4203  165.5734 C.3     1  UNL1        0.0174
     17 C         142.1708  142.3179  163.9975 C.3     1  UNL1        0.0859
     18 N         141.8743  141.8238  165.3825 N.3     1  UNL1       -0.2971
     19 H         142.6437  142.1332  165.9765 H       1  UNL1        0.1233
@<TRIPOS>BOND
     1    17    18    1
     2    18    15    1
     3    15    16    1
     4    15     1    1
     5     1     7    1
     6     7     8   ar
     7     8     9   ar
     8     9    10   ar
     9    10    11    1
    10    10    12   ar
    11    12    13    1
    12    12    14   ar
    13     1     2    1
    14     2     3    1
    15     3     4    1
    16     4     5    1
    17     5     6    1
    18     6     1    1
    19    14     7   ar
    20    18    19    1
@<TRIPOS>MOLECULE
*****
 19 20 0 0 0
SMALL
GASTEIGER

@<TRIPOS>ATOM
      1 C         143.3864  140.4716  165.4185 C.3     1  UNL1        0.0321
      2 C         143.3146  141.9143  165.8229 C.3     1  UNL1        0.0053
      3 C         144.2526  142.9122  165.2112 C.3     1  UNL1        0.0004
      4 C         145.2625  142.4675  164.1951 C.3     1  UNL1        0.0000
      5 C         145.3344  141.0249  163.7908 C.3     1  UNL1        0.0004
      6 C         144.3963  140.0269  164.4024 C.3     1  UNL1        0.0053
      7 C         142.2664  140.4076  166.4142 C.ar    1  UNL1       -0.0207
      8 C         140.8682  140.7510  165.9934 C.ar    1  UNL1       -0.0033
      9 C         139.7482  140.6870  166.9892 C.ar    1  UNL1        0.0119
     10 C         140.0264  140.2794  168.4057 C.ar    1  UNL1        0.0682
     11 CL        138.9064  140.2153  169.4014 Cl      1  UNL1       -0.0814
     12 C         141.4246  139.9359  168.8265 C.ar    1  UNL1        0.0679
     13 CL        141.7028  139.5284  170.2430 Cl      1  UNL1       -0.0814
     14 C         142.5446  140.0000  167.8308 C.ar    1  UNL1        0.0080
     15 C         143.0693  139.0067  165.3599 C.3     1  UNL1        0.0578
     16 C         143.7346  138.0567  166.3111 C.3     1  UNL1        0.0174
     17 C         141.3125  137.2377  164.6289 C.3     1  UNL1        0.0859
     18 N         142.0868  138.4918  164.3502 N.3     1  UNL1       -0.2971
     19 H         141.4025  139.2333  164.2005 H       1  UNL1        0.1233
@<TRIPOS>BOND
     1    17    18    1
     2    18    15    1
     3    15    16    1
     4    15     1    1
     5     1     7    1
     6     7     8   ar
     7     8     9   ar
     8     9    10   ar
     9    10    11    1
    10    10    12   ar
    11    12    13    1
    12    12    14   ar
    13     1     2    1
    14     2     3    1
    15     3     4    1
    16     4     5    1
    17     5     6    1
    18     6     1    1
    19    14     7   ar
    20    18    19    1
@<TRIPOS>MOLECULE
*****
 19 20 0 0 0
SMALL
GASTEIGER

@<TRIPOS>ATOM
      1 C         139.3092  141.1039  165.8315 C.3     1  UNL1        0.0321
      2 C         139.9197  142.3773  166.3372 C.3     1  UNL1        0.0053
      3 C         139.5361  143.6897  165.7204 C.3     1  UNL1        0.0004
      4 C         138.5419  143.7286  164.5978 C.3     1  UNL1        0.0000
      5 C         137.9314  142.4553  164.0921 C.3     1  UNL1        0.0004
      6 C         138.3150  141.1429  164.7089 C.3     1  UNL1        0.0053
      7 C         140.1986  140.5566  166.9083 C.ar    1  UNL1       -0.0207
      8 C         141.5661  140.0456  166.5638 C.ar    1  UNL1       -0.0033
      9 C         142.4555  139.4984  167.6406 C.ar    1  UNL1        0.0119
     10 C         141.9773  139.4622  169.0619 C.ar    1  UNL1        0.0682
     11 CL        142.8667  138.9149  170.1388 Cl      1  UNL1       -0.0814
     12 C         140.6098  139.9732  169.4064 C.ar    1  UNL1        0.0679
     13 CL        140.1316  139.9369  170.8277 Cl      1  UNL1       -0.0814
     14 C         139.7205  140.5204  168.3296 C.ar    1  UNL1        0.0080
     15 C         139.0076  139.6405  165.6997 C.3     1  UNL1        0.0578
     16 C         137.9557  139.0107  166.5639 C.3     1  UNL1        0.0174
     17 C         139.0599  137.6934  163.9804 C.3     1  UNL1        0.0859
     18 N         139.7579  138.8068  164.7038 N.3     1  UNL1       -0.2971
     19 H         140.1103  139.4457  163.9910 H       1  UNL1        0.1233
@<TRIPOS>BOND
     1    17    18    1
     2    18    15    1
     3    15    16    1
     4    15     1    1
     5     1     7    1
     6     7     8   ar
     7     8     9   ar
     8     9    10   ar
     9    10    11    1
    10    10    12   ar
    11    12    13    1
    12    12    14   ar
    13     1     2    1
    14     2     3    1
    15     3     4    1
    16     4     5    1
    17     5     6    1
    18     6     1    1
    19    14     7   ar
    20    18    19    1
@<TRIPOS>MOLECULE
*****
 19 20 0 0 0
SMALL
GASTEIGER

@<TRIPOS>ATOM
      1 C         141.8055  142.1752  167.6871 C.3     1  UNL1        0.0321
      2 C         140.7087  142.8565  168.4505 C.3     1  UNL1        0.0053
      3 C         140.9666  143.3707  169.8358 C.3     1  UNL1        0.0004
      4 C         142.3213  143.2036  170.4577 C.3     1  UNL1        0.0000
      5 C         143.4181  142.5222  169.6944 C.3     1  UNL1        0.0004
      6 C         143.1603  142.0080  168.3091 C.3     1  UNL1        0.0053
      7 C         140.6982  142.0962  166.6783 C.ar    1  UNL1       -0.0207
      8 C         140.3720  143.2879  165.8278 C.ar    1  UNL1       -0.0033
      9 C         139.2647  143.2088  164.8191 C.ar    1  UNL1        0.0119
     10 C         138.4836  141.9381  164.6609 C.ar    1  UNL1        0.0682
     11 CL        137.3762  141.8591  163.6521 Cl      1  UNL1       -0.0814
     12 C         138.8097  140.7464  165.5114 C.ar    1  UNL1        0.0679
     13 CL        138.0286  139.4757  165.3532 Cl      1  UNL1       -0.0814
     14 C         139.9170  140.8255  166.5201 C.ar    1  UNL1        0.0080
     15 C         142.5178  141.4664  166.5734 C.3     1  UNL1        0.0578
     16 C         143.1519  142.2555  165.4666 C.3     1  UNL1        0.0174
     17 C         143.3398  139.2612  165.4727 C.3     1  UNL1        0.0859
     18 N         142.5960  139.9685  166.5666 N.3     1  UNL1       -0.2971
     19 H         143.0330  139.6924  167.4459 H       1  UNL1        0.1233
@<TRIPOS>BOND
     1    17    18    1
     2    18    15    1
     3    15    16    1
     4    15     1    1
     5     1     7    1
     6     7     8   ar
     7     8     9   ar
     8     9    10   ar
     9    10    11    1
    10    10    12   ar
    11    12    13    1
    12    12    14   ar
    13     1     2    1
    14     2     3    1
    15     3     4    1
    16     4     5    1
    17     5     6    1
    18     6     1    1
    19    14     7   ar
    20    18    19    1
@<TRIPOS>MOLECULE
*****
 19 20 0 0 0
SMALL
GASTEIGER

@<TRIPOS>ATOM
      1 C         141.6153  142.1980  167.5548 C.3     1  UNL1        0.0321
      2 C         140.5273  142.9062  168.3064 C.3     1  UNL1        0.0053
      3 C         140.7793  143.4044  169.6986 C.3     1  UNL1        0.0004
      4 C         142.1193  143.1944  170.3393 C.3     1  UNL1        0.0000
      5 C         143.2072  142.4863  169.5878 C.3     1  UNL1        0.0004
      6 C         142.9553  141.9881  168.1955 C.3     1  UNL1        0.0053
      7 C         140.5212  142.1571  166.5294 C.ar    1  UNL1       -0.0207
      8 C         139.7905  140.8745  166.2631 C.ar    1  UNL1       -0.0033
      9 C         138.6965  140.8337  165.2378 C.ar    1  UNL1        0.0119
     10 C         138.3332  142.0754  164.4787 C.ar    1  UNL1        0.0682
     11 CL        137.2391  142.0345  163.4533 Cl      1  UNL1       -0.0814
     12 C         139.0639  143.3580  164.7450 C.ar    1  UNL1        0.0679
     13 CL        138.7007  144.5997  163.9859 Cl      1  UNL1       -0.0814
     14 C         140.1579  143.3988  165.7704 C.ar    1  UNL1        0.0080
     15 C         142.3233  141.4757  166.4472 C.3     1  UNL1        0.0578
     16 C         142.6065  140.0078  166.5698 C.3     1  UNL1        0.0174
     17 C         144.0693  141.9176  164.5746 C.3     1  UNL1        0.0859
     18 N         142.7481  142.2212  165.2169 N.3     1  UNL1       -0.2971
     19 H         142.0319  142.0551  164.5099 H       1  UNL1        0.1233
@<TRIPOS>BOND
     1    17    18    1
     2    18    15    1
     3    15    16    1
     4    15     1    1
     5     1     7    1
     6     7     8   ar
     7     8     9   ar
     8     9    10   ar
     9    10    11    1
    10    10    12   ar
    11    12    13    1
    12    12    14   ar
    13     1     2    1
    14     2     3    1
    15     3     4    1
    16     4     5    1
    17     5     6    1
    18     6     1    1
    19    14     7   ar
    20    18    19    1
@<TRIPOS>MOLECULE
*****
 19 20 0 0 0
SMALL
GASTEIGER

@<TRIPOS>ATOM
      1 C         140.7337  141.4216  167.6401 C.3     1  UNL1        0.0321
      2 C         139.9769  140.3547  168.3742 C.3     1  UNL1        0.0053
      3 C         139.3904  140.6450  169.7239 C.3     1  UNL1        0.0004
      4 C         139.5608  142.0022  170.3396 C.3     1  UNL1        0.0000
      5 C         140.3176  143.0691  169.6055 C.3     1  UNL1        0.0004
      6 C         140.9041  142.7788  168.2557 C.3     1  UNL1        0.0053
      7 C         140.8389  140.2996  166.6501 C.ar    1  UNL1       -0.0207
      8 C         142.1098  139.5101  166.5435 C.ar    1  UNL1       -0.0033
      9 C         142.2150  138.3882  165.5535 C.ar    1  UNL1        0.0119
     10 C         141.0492  138.0557  164.6701 C.ar    1  UNL1        0.0682
     11 CL        141.1544  136.9337  163.6801 Cl      1  UNL1       -0.0814
     12 C         139.7782  138.8452  164.7767 C.ar    1  UNL1        0.0679
     13 CL        138.6124  138.5127  163.8933 Cl      1  UNL1       -0.0814
     14 C         139.6731  139.9671  165.7667 C.ar    1  UNL1        0.0080
     15 C         141.5271  142.0989  166.5622 C.3     1  UNL1        0.0578
     16 C         143.0124  142.2501  166.7067 C.3     1  UNL1        0.0174
     17 C         141.4723  143.7126  164.5267 C.3     1  UNL1        0.0859
     18 N         140.8350  142.6248  165.3397 N.3     1  UNL1       -0.2971
     19 H         140.6988  141.8309  164.7140 H       1  UNL1        0.1233
@<TRIPOS>BOND
     1    17    18    1
     2    18    15    1
     3    15    16    1
     4    15     1    1
     5     1     7    1
     6     7     8   ar
     7     8     9   ar
     8     9    10   ar
     9    10    11    1
    10    10    12   ar
    11    12    13    1
    12    12    14   ar
    13     1     2    1
    14     2     3    1
    15     3     4    1
    16     4     5    1
    17     5     6    1
    18     6     1    1
    19    14     7   ar
    20    18    19    1
@<TRIPOS>MOLECULE
*****
 19 20 0 0 0
SMALL
GASTEIGER

@<TRIPOS>ATOM
      1 C         141.6899  142.2614  167.7042 C.3     1  UNL1        0.0321
      2 C         142.9868  142.1029  168.4409 C.3     1  UNL1        0.0053
      3 C         143.1323  142.6509  169.8296 C.3     1  UNL1        0.0004
      4 C         141.9808  143.3574  170.4816 C.3     1  UNL1        0.0000
      5 C         140.6839  143.5158  169.7449 C.3     1  UNL1        0.0004
      6 C         140.5384  142.9679  168.3562 C.3     1  UNL1        0.0053
      7 C         142.4871  141.5206  166.6718 C.ar    1  UNL1       -0.0207
      8 C         142.3205  140.0379  166.5174 C.ar    1  UNL1       -0.0033
      9 C         143.1177  139.2972  165.4850 C.ar    1  UNL1        0.0119
     10 C         144.0814  140.0391  164.6071 C.ar    1  UNL1        0.0682
     11 CL        144.8786  139.2983  163.5747 Cl      1  UNL1       -0.0814
     12 C         144.2480  141.5218  164.7615 C.ar    1  UNL1        0.0679
     13 CL        145.2117  142.2638  163.8836 Cl      1  UNL1       -0.0814
     14 C         143.4508  142.2625  165.7939 C.ar    1  UNL1        0.0080
     15 C         140.6698  142.1626  166.6089 C.3     1  UNL1        0.0578
     16 C         140.6573  143.1749  165.5021 C.3     1  UNL1        0.0174
     17 C         138.8357  140.7758  165.3994 C.3     1  UNL1        0.0859
     18 N         139.6622  141.0515  166.6204 N.3     1  UNL1       -0.2971
     19 H         140.1723  140.1935  166.8305 H       1  UNL1        0.1233
@<TRIPOS>BOND
     1    17    18    1
     2    18    15    1
     3    15    16    1
     4    15     1    1
     5     1     7    1
     6     7     8   ar
     7     8     9   ar
     8     9    10   ar
     9    10    11    1
    10    10    12   ar
    11    12    13    1
    12    12    14   ar
    13     1     2    1
    14     2     3    1
    15     3     4    1
    16     4     5    1
    17     5     6    1
    18     6     1    1
    19    14     7   ar
    20    18    19    1
