@<TRIPOS>MOLECULE
*****
 26 28 0 0 0
SMALL
GASTEIGER

@<TRIPOS>ATOM
      1 C         144.4282  142.6801  161.1053 C.3     1  UNL1        0.0902
      2 N         144.5328  141.8092  162.3221 N.3     1  UNL1       -0.2639
      3 C         145.0731  142.3721  163.6032 C.3     1  UNL1        0.0992
      4 C         144.1350  142.7501  164.7108 C.2     1  UNL1       -0.0088
      5 C         143.7568  141.7383  165.7515 C.2     1  UNL1       -0.0032
      6 C         142.8186  142.1164  166.8593 C.ar    1  UNL1       -0.0003
      7 C         141.3589  142.3093  166.5727 C.ar    1  UNL1       -0.0001
      8 C         140.4208  142.6874  167.6804 C.ar    1  UNL1        0.0039
      9 C         140.9423  142.8727  169.0745 C.ar    1  UNL1        0.0714
     10 C         142.4020  142.6798  169.3610 C.ar    1  UNL1        0.0039
     11 C         143.3402  142.3017  168.2534 C.ar    1  UNL1       -0.0001
     12 C         140.0042  143.2508  170.1822 C.3     1  UNL1        0.4186
     13 F         139.0660  143.6289  171.2898 F       1  UNL1       -0.1659
     14 F         139.5722  141.8196  170.3048 F       1  UNL1       -0.1659
     15 F         140.4361  144.6820  170.0595 F       1  UNL1       -0.1659
     16 C         144.0971  140.3753  162.2577 C.3     1  UNL1        0.0994
     17 C         142.9471  139.9025  163.0967 C.ar    1  UNL1       -0.0065
     18 C         143.0906  138.6702  163.9398 C.ar    1  UNL1       -0.0033
     19 C         141.9406  138.1973  164.7788 C.ar    1  UNL1       -0.0049
     20 C         140.6470  138.9568  164.7747 C.ar    1  UNL1       -0.0262
     21 C         140.5035  140.1890  163.9315 C.ar    1  UNL1       -0.0264
     22 C         141.6536  140.6619  163.0925 C.ar    1  UNL1       -0.0075
     23 C         139.2100  140.9484  163.9273 C.3     1  UNL1        0.0260
     24 C         138.0600  140.4756  164.7663 C.3     1  UNL1        0.0050
     25 C         138.2035  139.2433  165.6094 C.3     1  UNL1        0.0050
     26 C         139.4971  138.4839  165.6136 C.3     1  UNL1        0.0260
@<TRIPOS>BOND
     1     1     2    1
     2     2     3    1
     3     3     4    1
     4     4     5    2
     5     5     6    1
     6     6     7   ar
     7     7     8   ar
     8     8     9   ar
     9     9    12    1
    10    12    13    1
    11    12    14    1
    12    12    15    1
    13     9    10   ar
    14    10    11   ar
    15     2    16    1
    16    16    17    1
    17    17    18   ar
    18    18    19   ar
    19    19    20   ar
    20    20    21   ar
    21    21    22   ar
    22    21    23    1
    23    23    24    1
    24    24    25    1
    25    25    26    1
    26    11     6   ar
    27    22    17   ar
    28    26    20    1
@<TRIPOS>MOLECULE
*****
 26 28 0 0 0
SMALL
GASTEIGER

@<TRIPOS>ATOM
      1 C         143.8411  138.9405  161.4772 C.3     1  UNL1        0.0902
      2 N         143.9058  140.2329  162.2357 N.3     1  UNL1       -0.2639
      3 C         144.4498  140.2557  163.6334 C.3     1  UNL1        0.0992
      4 C         143.5430  140.5700  164.7861 C.2     1  UNL1       -0.0088
      5 C         143.7040  141.8582  165.5376 C.2     1  UNL1       -0.0032
      6 C         142.7971  142.1724  166.6904 C.ar    1  UNL1       -0.0003
      7 C         141.3337  142.4005  166.4528 C.ar    1  UNL1       -0.0001
      8 C         140.4268  142.7147  167.6055 C.ar    1  UNL1        0.0039
      9 C         140.9833  142.8009  168.9957 C.ar    1  UNL1        0.0714
     10 C         142.4467  142.5729  169.2333 C.ar    1  UNL1        0.0039
     11 C         143.3536  142.2586  168.0806 C.ar    1  UNL1       -0.0001
     12 C         140.0763  143.1151  170.1485 C.3     1  UNL1        0.4186
     13 F         139.1694  143.4293  171.3012 F       1  UNL1       -0.1659
     14 F         139.8948  141.6485  170.4054 F       1  UNL1       -0.1659
     15 F         140.2578  144.5818  169.8915 F       1  UNL1       -0.1659
     16 C         143.4266  141.5024  161.5966 C.3     1  UNL1        0.0994
     17 C         142.3827  142.3373  162.2773 C.ar    1  UNL1       -0.0065
     18 C         142.6730  143.7685  162.6199 C.ar    1  UNL1       -0.0033
     19 C         141.6292  144.6033  163.3007 C.ar    1  UNL1       -0.0049
     20 C         140.2950  144.0070  163.6388 C.ar    1  UNL1       -0.0262
     21 C         140.0046  142.5758  163.2962 C.ar    1  UNL1       -0.0264
     22 C         141.0486  141.7409  162.6154 C.ar    1  UNL1       -0.0075
     23 C         138.6705  141.9794  163.6342 C.3     1  UNL1        0.0260
     24 C         137.6267  142.8142  164.3150 C.3     1  UNL1        0.0050
     25 C         137.9170  144.2454  164.6576 C.3     1  UNL1        0.0050
     26 C         139.2511  144.8418  164.3195 C.3     1  UNL1        0.0260
@<TRIPOS>BOND
     1     1     2    1
     2     2     3    1
     3     3     4    1
     4     4     5    2
     5     5     6    1
     6     6     7   ar
     7     7     8   ar
     8     8     9   ar
     9     9    12    1
    10    12    13    1
    11    12    14    1
    12    12    15    1
    13     9    10   ar
    14    10    11   ar
    15     2    16    1
    16    16    17    1
    17    17    18   ar
    18    18    19   ar
    19    19    20   ar
    20    20    21   ar
    21    21    22   ar
    22    21    23    1
    23    23    24    1
    24    24    25    1
    25    25    26    1
    26    11     6   ar
    27    22    17   ar
    28    26    20    1
@<TRIPOS>MOLECULE
*****
 26 28 0 0 0
SMALL
GASTEIGER

@<TRIPOS>ATOM
      1 C         142.2693  137.6507  161.4063 C.3     1  UNL1        0.0902
      2 N         141.1150  137.9065  162.3293 N.3     1  UNL1       -0.2639
      3 C         141.1742  137.4363  163.7525 C.3     1  UNL1        0.0992
      4 C         141.6947  138.3492  164.8228 C.2     1  UNL1       -0.0088
      5 C         140.7395  139.1655  165.6422 C.2     1  UNL1       -0.0032
      6 C         141.2601  140.0784  166.7126 C.ar    1  UNL1       -0.0003
      7 C         140.7520  141.4864  166.8099 C.ar    1  UNL1       -0.0001
      8 C         141.2725  142.3993  167.8802 C.ar    1  UNL1        0.0039
      9 C         142.3011  141.9042  168.8532 C.ar    1  UNL1        0.0714
     10 C         142.8092  140.4962  168.7559 C.ar    1  UNL1        0.0039
     11 C         142.2887  139.5833  167.6856 C.ar    1  UNL1       -0.0001
     12 C         142.8217  142.8171  169.9237 C.3     1  UNL1        0.4186
     13 F         143.3422  143.7299  170.9940 F       1  UNL1       -0.1659
     14 F         141.5212  143.5644  169.9187 F       1  UNL1       -0.1659
     15 F         144.1222  142.0697  169.9286 F       1  UNL1       -0.1659
     16 C         139.9014  138.6324  161.8291 C.3     1  UNL1        0.0994
     17 C         139.4298  139.8740  162.5262 C.ar    1  UNL1       -0.0065
     18 C         138.0339  139.9441  163.0708 C.ar    1  UNL1       -0.0033
     19 C         137.5622  141.1857  163.7679 C.ar    1  UNL1       -0.0049
     20 C         138.4865  142.3573  163.9203 C.ar    1  UNL1       -0.0262
     21 C         139.8823  142.2873  163.3757 C.ar    1  UNL1       -0.0264
     22 C         140.3540  141.0456  162.6786 C.ar    1  UNL1       -0.0075
     23 C         140.8065  143.4588  163.5282 C.3     1  UNL1        0.0260
     24 C         140.3349  144.7004  164.2252 C.3     1  UNL1        0.0050
     25 C         138.9390  144.7704  164.7699 C.3     1  UNL1        0.0050
     26 C         138.0148  143.5989  164.6174 C.3     1  UNL1        0.0260
@<TRIPOS>BOND
     1     1     2    1
     2     2     3    1
     3     3     4    1
     4     4     5    2
     5     5     6    1
     6     6     7   ar
     7     7     8   ar
     8     8     9   ar
     9     9    12    1
    10    12    13    1
    11    12    14    1
    12    12    15    1
    13     9    10   ar
    14    10    11   ar
    15     2    16    1
    16    16    17    1
    17    17    18   ar
    18    18    19   ar
    19    19    20   ar
    20    20    21   ar
    21    21    22   ar
    22    21    23    1
    23    23    24    1
    24    24    25    1
    25    25    26    1
    26    11     6   ar
    27    22    17   ar
    28    26    20    1
@<TRIPOS>MOLECULE
*****
 26 28 0 0 0
SMALL
GASTEIGER

@<TRIPOS>ATOM
      1 C         138.1364  143.9808  162.3511 C.3     1  UNL1        0.0902
      2 N         139.0360  144.6186  163.3679 N.3     1  UNL1       -0.2639
      3 C         138.5950  144.7252  164.7976 C.3     1  UNL1        0.0992
      4 C         139.3970  144.0672  165.8809 C.2     1  UNL1       -0.0088
      5 C         139.7009  142.6003  165.8035 C.2     1  UNL1       -0.0032
      6 C         140.5030  141.9423  166.8869 C.ar    1  UNL1       -0.0003
      7 C         141.9667  142.2406  167.0227 C.ar    1  UNL1       -0.0001
      8 C         142.7689  141.5827  168.1061 C.ar    1  UNL1        0.0039
      9 C         142.1072  140.6263  169.0535 C.ar    1  UNL1        0.0714
     10 C         140.6435  140.3280  168.9176 C.ar    1  UNL1        0.0039
     11 C         139.8414  140.9860  167.8343 C.ar    1  UNL1       -0.0001
     12 C         142.9094  139.9683  170.1369 C.3     1  UNL1        0.4186
     13 F         143.7114  139.3103  171.2202 F       1  UNL1       -0.1659
     14 F         142.0008  138.7760  170.0853 F       1  UNL1       -0.1659
     15 F         143.8180  141.1607  170.1885 F       1  UNL1       -0.1659
     16 C         140.3766  145.1498  162.9549 C.3     1  UNL1        0.0994
     17 C         141.6227  144.3872  163.2951 C.ar    1  UNL1       -0.0065
     18 C         142.7884  145.0953  163.9194 C.ar    1  UNL1       -0.0033
     19 C         144.0345  144.3328  164.2595 C.ar    1  UNL1       -0.0049
     20 C         144.1150  142.8621  163.9753 C.ar    1  UNL1       -0.0262
     21 C         142.9493  142.1540  163.3510 C.ar    1  UNL1       -0.0264
     22 C         141.7031  142.9166  163.0109 C.ar    1  UNL1       -0.0075
     23 C         143.0297  140.6834  163.0668 C.3     1  UNL1        0.0260
     24 C         144.2758  139.9209  163.4069 C.3     1  UNL1        0.0050
     25 C         145.4415  140.6289  164.0313 C.3     1  UNL1        0.0050
     26 C         145.3611  142.0995  164.3155 C.3     1  UNL1        0.0260
@<TRIPOS>BOND
     1     1     2    1
     2     2     3    1
     3     3     4    1
     4     4     5    2
     5     5     6    1
     6     6     7   ar
     7     7     8   ar
     8     8     9   ar
     9     9    12    1
    10    12    13    1
    11    12    14    1
    12    12    15    1
    13     9    10   ar
    14    10    11   ar
    15     2    16    1
    16    16    17    1
    17    17    18   ar
    18    18    19   ar
    19    19    20   ar
    20    20    21   ar
    21    21    22   ar
    22    21    23    1
    23    23    24    1
    24    24    25    1
    25    25    26    1
    26    11     6   ar
    27    22    17   ar
    28    26    20    1
@<TRIPOS>MOLECULE
*****
 26 28 0 0 0
SMALL
GASTEIGER

@<TRIPOS>ATOM
      1 C         140.9067  142.1382  171.4209 C.3     1  UNL1        0.0902
      2 N         140.9221  141.0565  170.3817 N.3     1  UNL1       -0.2639
      3 C         139.6309  140.4949  169.8646 C.3     1  UNL1        0.0992
      4 C         139.5761  139.8740  168.5003 C.2     1  UNL1       -0.0088
      5 C         139.4341  140.7429  167.2859 C.2     1  UNL1       -0.0032
      6 C         139.3793  140.1219  165.9216 C.ar    1  UNL1       -0.0003
      7 C         139.7500  140.9308  164.7140 C.ar    1  UNL1       -0.0001
      8 C         139.6952  140.3099  163.3496 C.ar    1  UNL1        0.0039
      9 C         139.2698  138.8801  163.1929 C.ar    1  UNL1        0.0714
     10 C         138.8991  138.0712  164.4005 C.ar    1  UNL1        0.0039
     11 C         138.9539  138.6921  165.7649 C.ar    1  UNL1       -0.0001
     12 C         139.2150  138.2591  161.8286 C.3     1  UNL1        0.4186
     13 F         139.1602  137.6381  160.4643 F       1  UNL1       -0.1659
     14 F         140.5485  137.6156  162.0680 F       1  UNL1       -0.1659
     15 F         137.8814  138.9027  161.5891 F       1  UNL1       -0.1659
     16 C         142.2286  140.5366  169.8597 C.3     1  UNL1        0.0994
     17 C         142.5907  140.7310  168.4170 C.ar    1  UNL1       -0.0065
     18 C         142.8941  142.1055  167.8986 C.ar    1  UNL1       -0.0033
     19 C         143.2561  142.3000  166.4560 C.ar    1  UNL1       -0.0049
     20 C         143.3147  141.1199  165.5318 C.ar    1  UNL1       -0.0262
     21 C         143.0113  139.7455  166.0502 C.ar    1  UNL1       -0.0264
     22 C         142.6493  139.5510  167.4929 C.ar    1  UNL1       -0.0075
     23 C         143.0699  138.5654  165.1261 C.3     1  UNL1        0.0260
     24 C         143.4319  138.7599  163.6835 C.3     1  UNL1        0.0050
     25 C         143.7353  140.1344  163.1651 C.3     1  UNL1        0.0050
     26 C         143.6767  141.3144  164.0892 C.3     1  UNL1        0.0260
@<TRIPOS>BOND
     1     1     2    1
     2     2     3    1
     3     3     4    1
     4     4     5    2
     5     5     6    1
     6     6     7   ar
     7     7     8   ar
     8     8     9   ar
     9     9    12    1
    10    12    13    1
    11    12    14    1
    12    12    15    1
    13     9    10   ar
    14    10    11   ar
    15     2    16    1
    16    16    17    1
    17    17    18   ar
    18    18    19   ar
    19    19    20   ar
    20    20    21   ar
    21    21    22   ar
    22    21    23    1
    23    23    24    1
    24    24    25    1
    25    25    26    1
    26    11     6   ar
    27    22    17   ar
    28    26    20    1
@<TRIPOS>MOLECULE
*****
 26 28 0 0 0
SMALL
GASTEIGER

@<TRIPOS>ATOM
      1 C         139.2770  145.6184  162.0407 C.3     1  UNL1        0.0902
      2 N         138.7438  144.7912  163.1727 N.3     1  UNL1       -0.2639
      3 C         139.0845  145.1495  164.5888 C.3     1  UNL1        0.0992
      4 C         139.4705  144.0754  165.5621 C.2     1  UNL1       -0.0088
      5 C         140.7579  143.3270  165.3815 C.2     1  UNL1       -0.0032
      6 C         141.1439  142.2529  166.3548 C.ar    1  UNL1       -0.0003
      7 C         141.0032  142.4909  167.8291 C.ar    1  UNL1       -0.0001
      8 C         141.3891  141.4169  168.8025 C.ar    1  UNL1        0.0039
      9 C         141.9158  140.1048  168.3015 C.ar    1  UNL1        0.0714
     10 C         142.0565  139.8668  166.8272 C.ar    1  UNL1        0.0039
     11 C         141.6706  140.9408  165.8539 C.ar    1  UNL1       -0.0001
     12 C         142.3018  139.0307  169.2748 C.3     1  UNL1        0.4186
     13 F         142.6878  137.9567  170.2482 F       1  UNL1       -0.1659
     14 F         141.3444  139.5980  170.2805 F       1  UNL1       -0.1659
     15 F         143.2593  138.4634  168.2692 F       1  UNL1       -0.1659
     16 C         137.8698  143.6057  162.8885 C.3     1  UNL1        0.0994
     17 C         138.3864  142.2182  163.1294 C.ar    1  UNL1       -0.0065
     18 C         139.3825  141.6141  162.1844 C.ar    1  UNL1       -0.0033
     19 C         139.8991  140.2267  162.4253 C.ar    1  UNL1       -0.0049
     20 C         139.4195  139.4431  163.6111 C.ar    1  UNL1       -0.0262
     21 C         138.4234  140.0472  164.5561 C.ar    1  UNL1       -0.0264
     22 C         137.9068  141.4347  164.3152 C.ar    1  UNL1       -0.0075
     23 C         137.9438  139.2637  165.7419 C.3     1  UNL1        0.0260
     24 C         138.4604  137.8762  165.9828 C.3     1  UNL1        0.0050
     25 C         139.4565  137.2722  165.0378 C.3     1  UNL1        0.0050
     26 C         139.9360  138.0557  163.8520 C.3     1  UNL1        0.0260
@<TRIPOS>BOND
     1     1     2    1
     2     2     3    1
     3     3     4    1
     4     4     5    2
     5     5     6    1
     6     6     7   ar
     7     7     8   ar
     8     8     9   ar
     9     9    12    1
    10    12    13    1
    11    12    14    1
    12    12    15    1
    13     9    10   ar
    14    10    11   ar
    15     2    16    1
    16    16    17    1
    17    17    18   ar
    18    18    19   ar
    19    19    20   ar
    20    20    21   ar
    21    21    22   ar
    22    21    23    1
    23    23    24    1
    24    24    25    1
    25    25    26    1
    26    11     6   ar
    27    22    17   ar
    28    26    20    1
@<TRIPOS>MOLECULE
*****
 26 28 0 0 0
SMALL
GASTEIGER

@<TRIPOS>ATOM
      1 C         144.7219  142.7943  160.6854 C.3     1  UNL1        0.0902
      2 N         143.7053  142.7515  161.7875 N.3     1  UNL1       -0.2639
      3 C         142.2679  142.4621  161.4712 C.3     1  UNL1        0.0992
      4 C         141.3761  141.8613  162.5170 C.2     1  UNL1       -0.0088
      5 C         141.2132  140.3724  162.5984 C.2     1  UNL1       -0.0032
      6 C         140.3214  139.7716  163.6442 C.ar    1  UNL1       -0.0003
      7 C         139.2616  140.6086  164.2971 C.ar    1  UNL1       -0.0001
      8 C         138.3697  140.0079  165.3428 C.ar    1  UNL1        0.0039
      9 C         138.5377  138.5701  165.7358 C.ar    1  UNL1        0.0714
     10 C         139.5975  137.7330  165.0830 C.ar    1  UNL1        0.0039
     11 C         140.4893  138.3337  164.0372 C.ar    1  UNL1       -0.0001
     12 C         137.6458  137.9693  166.7816 C.3     1  UNL1        0.4186
     13 F         136.7540  137.3685  167.8274 F       1  UNL1       -0.1659
     14 F         137.7912  136.6246  166.1331 F       1  UNL1       -0.1659
     15 F         137.5004  139.3140  167.4302 F       1  UNL1       -0.1659
     16 C         144.1262  142.9981  163.2059 C.3     1  UNL1        0.0994
     17 C         143.5832  142.1393  164.3095 C.ar    1  UNL1       -0.0065
     18 C         144.1027  140.7451  164.4995 C.ar    1  UNL1       -0.0033
     19 C         143.5598  139.8863  165.6030 C.ar    1  UNL1       -0.0049
     20 C         142.4974  140.4218  166.5166 C.ar    1  UNL1       -0.0262
     21 C         141.9779  141.8161  166.3265 C.ar    1  UNL1       -0.0264
     22 C         142.5208  142.6749  165.2230 C.ar    1  UNL1       -0.0075
     23 C         140.9155  142.3516  167.2400 C.3     1  UNL1        0.0260
     24 C         140.3726  141.4929  168.3435 C.3     1  UNL1        0.0050
     25 C         140.8921  140.0986  168.5335 C.3     1  UNL1        0.0050
     26 C         141.9544  139.5631  167.6201 C.3     1  UNL1        0.0260
@<TRIPOS>BOND
     1     1     2    1
     2     2     3    1
     3     3     4    1
     4     4     5    2
     5     5     6    1
     6     6     7   ar
     7     7     8   ar
     8     8     9   ar
     9     9    12    1
    10    12    13    1
    11    12    14    1
    12    12    15    1
    13     9    10   ar
    14    10    11   ar
    15     2    16    1
    16    16    17    1
    17    17    18   ar
    18    18    19   ar
    19    19    20   ar
    20    20    21   ar
    21    21    22   ar
    22    21    23    1
    23    23    24    1
    24    24    25    1
    25    25    26    1
    26    11     6   ar
    27    22    17   ar
    28    26    20    1
@<TRIPOS>MOLECULE
*****
 26 28 0 0 0
SMALL
GASTEIGER

@<TRIPOS>ATOM
      1 C         137.5007  139.9553  160.8960 C.3     1  UNL1        0.0902
      2 N         137.6559  141.1996  161.7192 N.3     1  UNL1       -0.2639
      3 C         137.1986  141.2156  163.1477 C.3     1  UNL1        0.0992
      4 C         138.1618  140.8792  164.2473 C.2     1  UNL1       -0.0088
      5 C         138.8140  141.9767  165.0348 C.2     1  UNL1       -0.0032
      6 C         139.7773  141.6402  166.1345 C.ar    1  UNL1       -0.0003
      7 C         139.5576  140.4182  166.9760 C.ar    1  UNL1       -0.0001
      8 C         140.5207  140.0817  168.0756 C.ar    1  UNL1        0.0039
      9 C         141.7035  140.9673  168.3336 C.ar    1  UNL1        0.0714
     10 C         141.9232  142.1894  167.4920 C.ar    1  UNL1        0.0039
     11 C         140.9601  142.5258  166.3925 C.ar    1  UNL1       -0.0001
     12 C         142.6667  140.6308  169.4333 C.3     1  UNL1        0.4186
     13 F         143.6299  140.2944  170.5328 F       1  UNL1       -0.1659
     14 F         143.4909  141.8330  169.0791 F       1  UNL1       -0.1659
     15 F         141.8426  139.4287  169.7874 F       1  UNL1       -0.1659
     16 C         138.2682  142.4278  161.1139 C.3     1  UNL1        0.0994
     17 C         139.3746  143.1448  161.8294 C.ar    1  UNL1       -0.0065
     18 C         139.1891  144.5693  162.2612 C.ar    1  UNL1       -0.0033
     19 C         140.2953  145.2863  162.9767 C.ar    1  UNL1       -0.0049
     20 C         141.5873  144.5788  163.2605 C.ar    1  UNL1       -0.0262
     21 C         141.7728  143.1543  162.8288 C.ar    1  UNL1       -0.0264
     22 C         140.6664  142.4373  162.1132 C.ar    1  UNL1       -0.0075
     23 C         143.0646  142.4468  163.1126 C.3     1  UNL1        0.0260
     24 C         144.1709  143.1638  163.8281 C.3     1  UNL1        0.0050
     25 C         143.9854  144.5883  164.2598 C.3     1  UNL1        0.0050
     26 C         142.6935  145.2958  163.9760 C.3     1  UNL1        0.0260
@<TRIPOS>BOND
     1     1     2    1
     2     2     3    1
     3     3     4    1
     4     4     5    2
     5     5     6    1
     6     6     7   ar
     7     7     8   ar
     8     8     9   ar
     9     9    12    1
    10    12    13    1
    11    12    14    1
    12    12    15    1
    13     9    10   ar
    14    10    11   ar
    15     2    16    1
    16    16    17    1
    17    17    18   ar
    18    18    19   ar
    19    19    20   ar
    20    20    21   ar
    21    21    22   ar
    22    21    23    1
    23    23    24    1
    24    24    25    1
    25    25    26    1
    26    11     6   ar
    27    22    17   ar
    28    26    20    1
@<TRIPOS>MOLECULE
*****
 26 28 0 0 0
SMALL
GASTEIGER

@<TRIPOS>ATOM
      1 C         141.3415  141.2241  171.2920 C.3     1  UNL1        0.0902
      2 N         141.2190  140.8911  169.8346 N.3     1  UNL1       -0.2639
      3 C         139.9652  140.2533  169.3138 C.3     1  UNL1        0.0992
      4 C         139.6056  140.3808  167.8632 C.2     1  UNL1       -0.0088
      5 C         139.1737  139.1711  167.0884 C.2     1  UNL1       -0.0032
      6 C         138.8141  139.2987  165.6377 C.ar    1  UNL1       -0.0003
      7 C         138.2705  140.5936  165.1108 C.ar    1  UNL1       -0.0001
      8 C         137.9109  140.7211  163.6602 C.ar    1  UNL1        0.0039
      9 C         138.0950  139.5538  162.7364 C.ar    1  UNL1        0.0714
     10 C         138.6387  138.2589  163.2633 C.ar    1  UNL1        0.0039
     11 C         138.9982  138.1313  164.7140 C.ar    1  UNL1       -0.0001
     12 C         137.7354  139.6813  161.2857 C.3     1  UNL1        0.4186
     13 F         137.3759  139.8088  159.8351 F       1  UNL1       -0.1659
     14 F         138.3850  141.0327  161.2436 F       1  UNL1       -0.1659
     15 F         137.0859  138.3299  161.3279 F       1  UNL1       -0.1659
     16 C         142.3503  141.1958  168.8980 C.3     1  UNL1        0.0994
     17 C         142.4185  140.5215  167.5598 C.ar    1  UNL1       -0.0065
     18 C         142.8961  139.1031  167.4583 C.ar    1  UNL1       -0.0033
     19 C         142.9643  138.4287  166.1202 C.ar    1  UNL1       -0.0049
     20 C         142.5551  139.1727  164.8836 C.ar    1  UNL1       -0.0262
     21 C         142.0776  140.5910  164.9851 C.ar    1  UNL1       -0.0264
     22 C         142.0093  141.2654  166.3233 C.ar    1  UNL1       -0.0075
     23 C         141.6683  141.3349  163.7486 C.3     1  UNL1        0.0260
     24 C         141.7366  140.6605  162.4105 C.3     1  UNL1        0.0050
     25 C         142.2141  139.2422  162.3090 C.3     1  UNL1        0.0050
     26 C         142.6234  138.4983  163.5455 C.3     1  UNL1        0.0260
@<TRIPOS>BOND
     1     1     2    1
     2     2     3    1
     3     3     4    1
     4     4     5    2
     5     5     6    1
     6     6     7   ar
     7     7     8   ar
     8     8     9   ar
     9     9    12    1
    10    12    13    1
    11    12    14    1
    12    12    15    1
    13     9    10   ar
    14    10    11   ar
    15     2    16    1
    16    16    17    1
    17    17    18   ar
    18    18    19   ar
    19    19    20   ar
    20    20    21   ar
    21    21    22   ar
    22    21    23    1
    23    23    24    1
    24    24    25    1
    25    25    26    1
    26    11     6   ar
    27    22    17   ar
    28    26    20    1
