@<TRIPOS>MOLECULE
*****
 36 38 0 0 0
SMALL
GASTEIGER

@<TRIPOS>ATOM
      1 N         140.1802  139.4982  160.4011 N.am    1  UNL1       -0.2531
      2 C         139.2116  139.7696  159.2883 C.2     1  UNL1        0.3135
      3 O         137.7378  139.7932  159.5659 O.2     1  UNL1       -0.2518
      4 N         139.7170  140.0174  157.8979 N.am    1  UNL1       -0.2282
      5 C         141.1909  139.9938  157.6203 C.3     1  UNL1        0.1015
      6 C         141.6962  140.2415  156.2299 C.3     1  UNL1        0.0268
      7 C         140.7276  140.5129  155.1171 C.3     1  UNL1        0.0310
      8 C         139.2538  140.5365  155.3947 C.ar    1  UNL1        0.0098
      9 C         138.2852  140.8078  154.2819 C.ar    1  UNL1        0.0013
     10 C         136.8114  140.8314  154.5596 C.ar    1  UNL1        0.0643
     11 CA        136.3060  140.5837  155.9500 C.ar    1  UNL1        0.1260
     12 N         137.2745  140.3123  157.0628 N.ar    1  UNL1       -0.2274
     13 C         138.7485  140.2887  156.7851 C.ar    1  UNL1        0.1345
     14 H         141.1476  139.4827  160.2189 H       1  UNL1        0.1578
     15 C         138.9399  140.1561  164.1131 C.ar    1  UNL1        0.1524
     16 C         139.4452  140.4038  162.7227 C.ar    1  UNL1        0.0721
     17 C         139.6749  139.2505  161.7915 C.ar    1  UNL1        0.1384
     18 N         139.3993  137.8494  162.2508 N.ar    1  UNL1       -0.2281
     19 C         138.8939  137.6016  163.6413 C.ar    1  UNL1        0.1136
     20 C         138.6642  138.7550  164.5724 C.ar    1  UNL1        0.1215
     21 C         138.1589  138.5072  165.9627 C.1     1  UNL1        0.1051
     22 N         137.6536  138.2594  167.3532 N.1     1  UNL1       -0.1907
     23 O         138.7102  141.3094  165.0442 O.3     1  UNL1       -0.4746
     24 C         137.9009  142.4887  164.5921 C.3     1  UNL1        0.2065
     25 C         138.5843  143.7767  164.2400 C.3     1  UNL1        0.0551
     26 C         139.4866  143.6227  165.4283 C.3     1  UNL1        0.0051
     27 C         137.6821  143.9307  163.0517 C.3     1  UNL1        0.0051
     28 C         139.2678  145.0647  163.8879 C.3     1  UNL1        0.0757
     29 C         139.8247  146.2693  161.6544 C.3     1  UNL1        0.0897
     30 N         140.0835  145.1622  162.6329 N.3     1  UNL1       -0.2702
     31 C         141.1579  144.1527  162.3564 C.3     1  UNL1        0.0897
     32 C         135.8428  141.1028  153.4468 C.3     1  UNL1        0.3425
     33 F         135.3980  139.9854  152.5505 F       1  UNL1       -0.1932
     34 F         135.3191  142.4917  153.2303 F       1  UNL1       -0.1932
     35 C         134.8321  140.6073  156.2276 C.2     1  UNL1        0.2530
     36 O         134.2484  139.6880  157.2594 O.2     1  UNL1       -0.2815
@<TRIPOS>BOND
     1    29    30    1
     2    30    31    1
     3    30    28    1
     4    28    25    1
     5    25    26    1
     6    25    27    1
     7    25    24    1
     8    24    23    1
     9    23    15    1
    10    15    16   ar
    11    16    17   ar
    12    17     1    1
    13     1     2   am
    14     2     3    2
    15     2     4   am
    16     4     5    1
    17     5     6    1
    18     6     7    1
    19     7     8    1
    20     8     9   ar
    21     9    10   ar
    22    10    32    1
    23    32    33    1
    24    32    34    1
    25    10    11   ar
    26    11    35    1
    27    35    36    2
    28    11    12   ar
    29    12    13   ar
    30    17    18   ar
    31    18    19   ar
    32    19    20   ar
    33    20    21    1
    34    21    22    3
    35    20    15   ar
    36    13     4    1
    37    13     8   ar
    38     1    14    1
@<TRIPOS>MOLECULE
*****
 36 38 0 0 0
SMALL
GASTEIGER

@<TRIPOS>ATOM
      1 N         139.9136  138.4342  163.0184 N.am    1  UNL1       -0.2531
      2 C         140.4112  139.2350  164.1850 C.2     1  UNL1        0.3135
      3 O         141.6648  140.0486  164.0562 O.2     1  UNL1       -0.2518
      4 N         139.6551  139.2223  165.4806 N.am    1  UNL1       -0.2282
      5 C         138.4015  138.4088  165.6094 C.3     1  UNL1        0.1015
      6 C         137.6456  138.3961  166.9049 C.3     1  UNL1        0.0268
      7 C         138.1432  139.1969  168.0715 C.3     1  UNL1        0.0310
      8 C         139.3968  140.0104  167.9427 C.ar    1  UNL1        0.0098
      9 C         139.8944  140.8112  169.1093 C.ar    1  UNL1        0.0013
     10 C         141.1480  141.6248  168.9805 C.ar    1  UNL1        0.0643
     11 CA        141.9041  141.6375  167.6850 C.ar    1  UNL1        0.1260
     12 N         141.4064  140.8367  166.5183 N.ar    1  UNL1       -0.2274
     13 C         140.1528  140.0231  166.6472 C.ar    1  UNL1        0.1345
     14 H         139.0908  137.9003  163.1030 H       1  UNL1        0.1578
     15 C         140.9659  139.3352  159.2994 C.ar    1  UNL1        0.1524
     16 C         140.2100  139.3225  160.5949 C.ar    1  UNL1        0.0721
     17 C         140.6695  138.4469  161.7229 C.ar    1  UNL1        0.1384
     18 N         141.8850  137.5841  161.5553 N.ar    1  UNL1       -0.2281
     19 C         142.6410  137.5969  160.2598 C.ar    1  UNL1        0.1136
     20 C         142.1814  138.4724  159.1319 C.ar    1  UNL1        0.1215
     21 C         142.9374  138.4851  157.8364 C.1     1  UNL1        0.1051
     22 N         143.6935  138.4978  156.5409 N.1     1  UNL1       -0.1907
     23 O         140.5064  140.2107  158.1715 O.3     1  UNL1       -0.4746
     24 C         140.8959  141.6589  158.1395 C.3     1  UNL1        0.2065
     25 C         140.3034  142.6169  159.1301 C.3     1  UNL1        0.0551
     26 C         141.6507  142.7933  159.7653 C.3     1  UNL1        0.0051
     27 C         138.9560  142.4405  158.4950 C.3     1  UNL1        0.0051
     28 C         139.7110  143.5749  160.1207 C.3     1  UNL1        0.0757
     29 C         140.2563  145.6505  158.6562 C.3     1  UNL1        0.0897
     30 N         139.9894  145.0440  160.0020 N.3     1  UNL1       -0.2702
     31 C         140.0008  145.9068  161.2290 C.3     1  UNL1        0.0897
     32 C         141.6456  142.4256  170.1471 C.3     1  UNL1        0.3425
     33 F         142.1845  141.7277  171.3606 F       1  UNL1       -0.1932
     34 F         141.6044  143.9243  170.1003 F       1  UNL1       -0.1932
     35 C         143.1576  142.4510  167.5561 C.2     1  UNL1        0.2530
     36 O         143.7522  142.7033  166.2023 O.2     1  UNL1       -0.2815
@<TRIPOS>BOND
     1    29    30    1
     2    30    31    1
     3    30    28    1
     4    28    25    1
     5    25    26    1
     6    25    27    1
     7    25    24    1
     8    24    23    1
     9    23    15    1
    10    15    16   ar
    11    16    17   ar
    12    17     1    1
    13     1     2   am
    14     2     3    2
    15     2     4   am
    16     4     5    1
    17     5     6    1
    18     6     7    1
    19     7     8    1
    20     8     9   ar
    21     9    10   ar
    22    10    32    1
    23    32    33    1
    24    32    34    1
    25    10    11   ar
    26    11    35    1
    27    35    36    2
    28    11    12   ar
    29    12    13   ar
    30    17    18   ar
    31    18    19   ar
    32    19    20   ar
    33    20    21    1
    34    21    22    3
    35    20    15   ar
    36    13     4    1
    37    13     8   ar
    38     1    14    1
@<TRIPOS>MOLECULE
*****
 36 38 0 0 0
SMALL
GASTEIGER

@<TRIPOS>ATOM
      1 N         137.8617  140.0250  158.8615 N.am    1  UNL1       -0.2531
      2 C         138.3075  141.3493  158.3160 C.2     1  UNL1        0.3135
      3 O         139.4549  142.0752  158.9535 O.2     1  UNL1       -0.2518
      4 N         137.6057  141.9477  157.1329 N.am    1  UNL1       -0.2282
      5 C         136.4583  141.2217  156.4954 C.3     1  UNL1        0.1015
      6 C         135.7566  141.8201  155.3124 C.3     1  UNL1        0.0268
      7 C         136.2023  143.1444  154.7669 C.3     1  UNL1        0.0310
      8 C         137.3497  143.8703  155.4044 C.ar    1  UNL1        0.0098
      9 C         137.7955  145.1946  154.8588 C.ar    1  UNL1        0.0013
     10 C         138.9429  145.9205  155.4963 C.ar    1  UNL1        0.0643
     11 CA        139.6446  145.3222  156.6794 C.ar    1  UNL1        0.1260
     12 N         139.1989  143.9979  157.2249 N.ar    1  UNL1       -0.2274
     13 C         138.0514  143.2719  156.5874 C.ar    1  UNL1        0.1345
     14 H         137.1086  139.5486  158.4431 H       1  UNL1        0.1578
     15 C         138.6953  139.0018  162.6043 C.ar    1  UNL1        0.1524
     16 C         137.9936  139.6002  161.4213 C.ar    1  UNL1        0.0721
     17 C         138.5634  139.4267  160.0445 C.ar    1  UNL1        0.1384
     18 N         139.8349  138.6548  159.8509 N.ar    1  UNL1       -0.2281
     19 C         140.5366  138.0564  161.0340 C.ar    1  UNL1        0.1136
     20 C         139.9668  138.2300  162.4107 C.ar    1  UNL1        0.1215
     21 C         140.6685  137.6316  163.5937 C.1     1  UNL1        0.1051
     22 N         141.3701  137.0332  164.7768 N.1     1  UNL1       -0.1907
     23 O         138.1255  139.1754  163.9809 O.3     1  UNL1       -0.4746
     24 C         138.5474  140.3407  164.8259 C.3     1  UNL1        0.2065
     25 C         139.6170  140.1667  165.8631 C.3     1  UNL1        0.0551
     26 C         140.5385  141.0346  165.0584 C.3     1  UNL1        0.0051
     27 C         138.6955  139.2988  166.6678 C.3     1  UNL1        0.0051
     28 C         140.6866  139.9927  166.9003 C.3     1  UNL1        0.0757
     29 C         140.6646  139.9796  169.4982 C.3     1  UNL1        0.0897
     30 N         140.5960  140.7319  168.2023 N.3     1  UNL1       -0.2702
     31 C         140.4367  142.2234  168.2085 C.3     1  UNL1        0.0897
     32 C         139.3886  147.2448  154.9508 C.3     1  UNL1        0.3425
     33 F         138.6336  148.4927  155.3010 F       1  UNL1       -0.1932
     34 F         140.5894  147.3211  154.0550 F       1  UNL1       -0.1932
     35 C         140.7920  146.0481  157.3169 C.2     1  UNL1        0.2530
     36 O         142.1825  145.8686  156.7834 O.2     1  UNL1       -0.2815
@<TRIPOS>BOND
     1    29    30    1
     2    30    31    1
     3    30    28    1
     4    28    25    1
     5    25    26    1
     6    25    27    1
     7    25    24    1
     8    24    23    1
     9    23    15    1
    10    15    16   ar
    11    16    17   ar
    12    17     1    1
    13     1     2   am
    14     2     3    2
    15     2     4   am
    16     4     5    1
    17     5     6    1
    18     6     7    1
    19     7     8    1
    20     8     9   ar
    21     9    10   ar
    22    10    32    1
    23    32    33    1
    24    32    34    1
    25    10    11   ar
    26    11    35    1
    27    35    36    2
    28    11    12   ar
    29    12    13   ar
    30    17    18   ar
    31    18    19   ar
    32    19    20   ar
    33    20    21    1
    34    21    22    3
    35    20    15   ar
    36    13     4    1
    37    13     8   ar
    38     1    14    1
@<TRIPOS>MOLECULE
*****
 36 38 0 0 0
SMALL
GASTEIGER

@<TRIPOS>ATOM
      1 N         141.3452  145.2494  159.4855 N.am    1  UNL1       -0.2531
      2 C         140.3124  144.5046  158.6926 C.2     1  UNL1        0.3135
      3 O         139.7269  143.2329  159.2310 O.2     1  UNL1       -0.2518
      4 N         139.8651  145.0316  157.3613 N.am    1  UNL1       -0.2282
      5 C         140.4506  146.3033  156.8230 C.3     1  UNL1        0.1015
      6 C         140.0033  146.8302  155.4917 C.3     1  UNL1        0.0268
      7 C         138.9706  146.0855  154.6989 C.3     1  UNL1        0.0310
      8 C         138.3851  144.8137  155.2372 C.ar    1  UNL1        0.0098
      9 C         137.3523  144.0690  154.4444 C.ar    1  UNL1        0.0013
     10 C         136.7668  142.7972  154.9827 C.ar    1  UNL1        0.0643
     11 CA        137.2141  142.2702  156.3140 C.ar    1  UNL1        0.1260
     12 N         138.2468  143.0150  157.1069 N.ar    1  UNL1       -0.2274
     13 C         138.8323  144.2868  156.5685 C.ar    1  UNL1        0.1345
     14 H         141.7295  146.0841  159.1321 H       1  UNL1        0.1578
     15 C         141.4533  144.5165  163.3844 C.ar    1  UNL1        0.1524
     16 C         141.0060  145.0434  162.0531 C.ar    1  UNL1        0.0721
     17 C         141.7925  144.7225  160.8168 C.ar    1  UNL1        0.1384
     18 N         143.0262  143.8746  160.9117 N.ar    1  UNL1       -0.2281
     19 C         143.4735  143.3477  162.2431 C.ar    1  UNL1        0.1136
     20 C         142.6870  143.6687  163.4793 C.ar    1  UNL1        0.1215
     21 C         143.1343  143.1417  164.8106 C.1     1  UNL1        0.1051
     22 N         143.5816  142.6148  166.1419 N.1     1  UNL1       -0.1907
     23 O         140.6668  144.8375  164.6207 O.3     1  UNL1       -0.4746
     24 C         139.1733  144.6979  164.6168 C.3     1  UNL1        0.2065
     25 C         138.5461  143.3563  164.3781 C.3     1  UNL1        0.0551
     26 C         137.6976  143.9465  163.2911 C.3     1  UNL1        0.0051
     27 C         139.3946  142.7661  165.4651 C.3     1  UNL1        0.0051
     28 C         137.9188  142.0149  164.1393 C.3     1  UNL1        0.0757
     29 C         138.5253  139.5037  163.8634 C.3     1  UNL1        0.0897
     30 N         138.6978  140.9350  163.4488 N.3     1  UNL1       -0.2702
     31 C         139.6494  141.2862  162.3437 C.3     1  UNL1        0.0897
     32 C         135.7340  142.0524  154.1898 C.3     1  UNL1        0.3425
     33 F         134.3677  141.8240  154.7652 F       1  UNL1       -0.1932
     34 F         136.0675  141.5361  152.8215 F       1  UNL1       -0.1932
     35 C         136.6286  140.9985  156.8524 C.2     1  UNL1        0.2530
     36 O         137.2964  140.2893  157.9931 O.2     1  UNL1       -0.2815
@<TRIPOS>BOND
     1    29    30    1
     2    30    31    1
     3    30    28    1
     4    28    25    1
     5    25    26    1
     6    25    27    1
     7    25    24    1
     8    24    23    1
     9    23    15    1
    10    15    16   ar
    11    16    17   ar
    12    17     1    1
    13     1     2   am
    14     2     3    2
    15     2     4   am
    16     4     5    1
    17     5     6    1
    18     6     7    1
    19     7     8    1
    20     8     9   ar
    21     9    10   ar
    22    10    32    1
    23    32    33    1
    24    32    34    1
    25    10    11   ar
    26    11    35    1
    27    35    36    2
    28    11    12   ar
    29    12    13   ar
    30    17    18   ar
    31    18    19   ar
    32    19    20   ar
    33    20    21    1
    34    21    22    3
    35    20    15   ar
    36    13     4    1
    37    13     8   ar
    38     1    14    1
@<TRIPOS>MOLECULE
*****
 36 38 0 0 0
SMALL
GASTEIGER

@<TRIPOS>ATOM
      1 N         142.2389  137.7961  157.6458 N.am    1  UNL1       -0.2531
      2 C         142.6691  136.4299  157.2006 C.2     1  UNL1        0.3135
      3 O         143.6292  135.6364  158.0364 O.2     1  UNL1       -0.2518
      4 N         142.1393  135.8571  155.9194 N.am    1  UNL1       -0.2282
      5 C         141.1792  136.6505  155.0836 C.3     1  UNL1        0.1015
      6 C         140.6494  136.0777  153.8026 C.3     1  UNL1        0.0268
      7 C         141.0797  134.7115  153.3573 C.3     1  UNL1        0.0310
      8 C         142.0397  133.9180  154.1932 C.ar    1  UNL1        0.0098
      9 C         142.4700  132.5518  153.7479 C.ar    1  UNL1        0.0013
     10 C         143.4300  131.7583  154.5838 C.ar    1  UNL1        0.0643
     11 CA        143.9599  132.3311  155.8649 C.ar    1  UNL1        0.1260
     12 N         143.5296  133.6974  156.3101 N.ar    1  UNL1       -0.2274
     13 C         142.5695  134.4908  155.4742 C.ar    1  UNL1        0.1345
     14 H         141.6088  138.3169  157.0972 H       1  UNL1        0.1578
     15 C         142.8117  138.4121  161.5242 C.ar    1  UNL1        0.1524
     16 C         142.2819  137.8393  160.2432 C.ar    1  UNL1        0.0721
     17 C         142.7687  138.3689  158.9269 C.ar    1  UNL1        0.1384
     18 N         143.7853  139.4713  158.8917 N.ar    1  UNL1       -0.2281
     19 C         144.3151  140.0441  160.1729 C.ar    1  UNL1        0.1136
     20 C         143.8283  139.5145  161.4891 C.ar    1  UNL1        0.1215
     21 C         144.3581  140.0873  162.7701 C.1     1  UNL1        0.1051
     22 N         144.8880  140.6602  164.0512 N.1     1  UNL1       -0.1907
     23 O         142.3249  137.8825  162.8405 O.3     1  UNL1       -0.4746
     24 C         140.9424  137.3119  162.9543 C.3     1  UNL1        0.2065
     25 C         140.0406  137.7480  164.0708 C.3     1  UNL1        0.0551
     26 C         141.2254  137.8612  164.9836 C.3     1  UNL1        0.0051
     27 C         138.8557  137.6349  163.1581 C.3     1  UNL1        0.0051
     28 C         139.1388  138.1841  165.1873 C.3     1  UNL1        0.0757
     29 C         139.5317  139.8885  167.1085 C.3     1  UNL1        0.0897
     30 N         139.1840  139.6009  165.6779 N.3     1  UNL1       -0.2702
     31 C         138.8814  140.7301  164.7380 C.3     1  UNL1        0.0897
     32 C         143.8603  130.3921  154.1385 C.3     1  UNL1        0.3425
     33 F         144.7861  130.2416  152.9680 F       1  UNL1       -0.1932
     34 F         143.3646  129.1762  154.8639 F       1  UNL1       -0.1932
     35 C         144.9199  131.5376  156.7007 C.2     1  UNL1        0.2530
     36 O         145.6393  132.1928  157.8424 O.2     1  UNL1       -0.2815
@<TRIPOS>BOND
     1    29    30    1
     2    30    31    1
     3    30    28    1
     4    28    25    1
     5    25    26    1
     6    25    27    1
     7    25    24    1
     8    24    23    1
     9    23    15    1
    10    15    16   ar
    11    16    17   ar
    12    17     1    1
    13     1     2   am
    14     2     3    2
    15     2     4   am
    16     4     5    1
    17     5     6    1
    18     6     7    1
    19     7     8    1
    20     8     9   ar
    21     9    10   ar
    22    10    32    1
    23    32    33    1
    24    32    34    1
    25    10    11   ar
    26    11    35    1
    27    35    36    2
    28    11    12   ar
    29    12    13   ar
    30    17    18   ar
    31    18    19   ar
    32    19    20   ar
    33    20    21    1
    34    21    22    3
    35    20    15   ar
    36    13     4    1
    37    13     8   ar
    38     1    14    1
@<TRIPOS>MOLECULE
*****
 36 38 0 0 0
SMALL
GASTEIGER

@<TRIPOS>ATOM
      1 N         137.5755  140.5746  159.9787 N.am    1  UNL1       -0.2531
      2 C         138.2828  141.6730  159.2416 C.2     1  UNL1        0.3135
      3 O         139.2541  142.5576  159.9655 O.2     1  UNL1       -0.2518
      4 N         138.0188  141.8868  157.7805 N.am    1  UNL1       -0.2282
      5 C         137.0476  141.0022  157.0566 C.3     1  UNL1        0.1015
      6 C         136.7836  141.2160  155.5956 C.3     1  UNL1        0.0268
      7 C         137.4909  142.3143  154.8585 C.3     1  UNL1        0.0310
      8 C         138.4621  143.1989  155.5824 C.ar    1  UNL1        0.0098
      9 C         139.1694  144.2973  154.8453 C.ar    1  UNL1        0.0013
     10 C         140.1407  145.1819  155.5692 C.ar    1  UNL1        0.0643
     11 CA        140.4047  144.9682  157.0303 C.ar    1  UNL1        0.1260
     12 N         139.6974  143.8698  157.7674 N.ar    1  UNL1       -0.2274
     13 C         138.7261  142.9852  157.0434 C.ar    1  UNL1        0.1345
     14 H         136.9381  139.9940  159.5035 H       1  UNL1        0.1578
     15 C         138.8017  138.9023  163.3624 C.ar    1  UNL1        0.1524
     16 C         138.5378  139.1161  161.9014 C.ar    1  UNL1        0.0721
     17 C         137.8395  140.3609  161.4397 C.ar    1  UNL1        0.1384
     18 N         137.4053  141.3918  162.4390 N.ar    1  UNL1       -0.2281
     19 C         137.6693  141.1779  163.9001 C.ar    1  UNL1        0.1136
     20 C         138.3675  139.9333  164.3618 C.ar    1  UNL1        0.1215
     21 C         138.6314  139.7195  165.8228 C.1     1  UNL1        0.1051
     22 N         138.8954  139.5057  167.2839 N.1     1  UNL1       -0.1907
     23 O         139.4999  137.6577  163.8241 O.3     1  UNL1       -0.4746
     24 C         140.7830  137.2324  163.1739 C.3     1  UNL1        0.2065
     25 C         142.0441  138.0042  163.4274 C.3     1  UNL1        0.0551
     26 C         141.8096  137.9018  164.9054 C.3     1  UNL1        0.0051
     27 C         142.2785  138.1067  161.9494 C.3     1  UNL1        0.0051
     28 C         143.3050  138.7760  163.6809 C.3     1  UNL1        0.0757
     29 C         142.2098  141.1319  163.7061 C.3     1  UNL1        0.0897
     30 N         143.3654  140.2401  163.3605 N.3     1  UNL1       -0.2702
     31 C         144.5814  140.8126  162.6944 C.3     1  UNL1        0.0897
     32 C         140.8480  146.2803  154.8322 C.3     1  UNL1        0.3425
     33 F         141.9974  145.9555  153.9249 F       1  UNL1       -0.1932
     34 F         140.4057  147.7035  155.0024 F       1  UNL1       -0.1932
     35 C         141.3759  145.8528  157.7542 C.2     1  UNL1        0.2530
     36 O         141.8937  145.4517  159.1038 O.2     1  UNL1       -0.2815
@<TRIPOS>BOND
     1    29    30    1
     2    30    31    1
     3    30    28    1
     4    28    25    1
     5    25    26    1
     6    25    27    1
     7    25    24    1
     8    24    23    1
     9    23    15    1
    10    15    16   ar
    11    16    17   ar
    12    17     1    1
    13     1     2   am
    14     2     3    2
    15     2     4   am
    16     4     5    1
    17     5     6    1
    18     6     7    1
    19     7     8    1
    20     8     9   ar
    21     9    10   ar
    22    10    32    1
    23    32    33    1
    24    32    34    1
    25    10    11   ar
    26    11    35    1
    27    35    36    2
    28    11    12   ar
    29    12    13   ar
    30    17    18   ar
    31    18    19   ar
    32    19    20   ar
    33    20    21    1
    34    21    22    3
    35    20    15   ar
    36    13     4    1
    37    13     8   ar
    38     1    14    1
@<TRIPOS>MOLECULE
*****
 36 38 0 0 0
SMALL
GASTEIGER

@<TRIPOS>ATOM
      1 N         140.0238  138.2328  162.8027 N.am    1  UNL1       -0.2531
      2 C         140.5328  139.1064  163.9107 C.2     1  UNL1        0.3135
      3 O         141.7768  139.9208  163.7125 O.2     1  UNL1       -0.2518
      4 N         139.7977  139.1657  165.2169 N.am    1  UNL1       -0.2282
      5 C         138.5537  138.3514  165.4151 C.3     1  UNL1        0.1015
      6 C         137.8187  138.4107  166.7213 C.3     1  UNL1        0.0268
      7 C         138.3277  139.2843  167.8293 C.3     1  UNL1        0.0310
      8 C         139.5716  140.0987  167.6312 C.ar    1  UNL1        0.0098
      9 C         140.0806  140.9723  168.7392 C.ar    1  UNL1        0.0013
     10 C         141.3246  141.7866  168.5410 C.ar    1  UNL1        0.0643
     11 CA        142.0597  141.7274  167.2348 C.ar    1  UNL1        0.1260
     12 N         141.5507  140.8537  166.1267 N.ar    1  UNL1       -0.2274
     13 C         140.3067  140.0394  166.3250 C.ar    1  UNL1        0.1345
     14 H         139.2074  137.6983  162.9328 H       1  UNL1        0.1578
     15 C         140.8758  138.6983  158.9546 C.ar    1  UNL1        0.1524
     16 C         140.1407  138.7576  160.2608 C.ar    1  UNL1        0.0721
     17 C         140.7589  138.1735  161.4965 C.ar    1  UNL1        0.1384
     18 N         142.1120  137.5301  161.4259 N.ar    1  UNL1       -0.2281
     19 C         142.8471  137.4708  160.1196 C.ar    1  UNL1        0.1136
     20 C         142.2289  138.0549  158.8840 C.ar    1  UNL1        0.1215
     21 C         142.9639  137.9956  157.5778 C.1     1  UNL1        0.1051
     22 N         143.6991  137.9363  156.2716 N.1     1  UNL1       -0.1907
     23 O         140.2576  139.2824  157.7191 O.3     1  UNL1       -0.4746
     24 C         140.0255  140.7613  157.6238 C.3     1  UNL1        0.2065
     25 C         141.1812  141.6883  157.3891 C.3     1  UNL1        0.0551
     26 C         141.4505  141.0194  156.0738 C.3     1  UNL1        0.0051
     27 C         140.9118  142.3573  158.7043 C.3     1  UNL1        0.0051
     28 C         142.3368  142.6153  157.1543 C.3     1  UNL1        0.0757
     29 C         144.7089  142.3493  156.1282 C.3     1  UNL1        0.0897
     30 N         143.7424  142.1002  157.2481 N.3     1  UNL1       -0.2702
     31 C         144.1817  141.3359  158.4617 C.3     1  UNL1        0.0897
     32 C         141.8335  142.6603  169.6490 C.3     1  UNL1        0.3425
     33 F         142.9419  142.1768  170.5365 F       1  UNL1       -0.1932
     34 F         141.2340  144.0175  169.8696 F       1  UNL1       -0.1932
     35 C         143.3036  142.5417  167.0366 C.2     1  UNL1        0.2530
     36 O         143.8925  142.6899  165.6650 O.2     1  UNL1       -0.2815
@<TRIPOS>BOND
     1    29    30    1
     2    30    31    1
     3    30    28    1
     4    28    25    1
     5    25    26    1
     6    25    27    1
     7    25    24    1
     8    24    23    1
     9    23    15    1
    10    15    16   ar
    11    16    17   ar
    12    17     1    1
    13     1     2   am
    14     2     3    2
    15     2     4   am
    16     4     5    1
    17     5     6    1
    18     6     7    1
    19     7     8    1
    20     8     9   ar
    21     9    10   ar
    22    10    32    1
    23    32    33    1
    24    32    34    1
    25    10    11   ar
    26    11    35    1
    27    35    36    2
    28    11    12   ar
    29    12    13   ar
    30    17    18   ar
    31    18    19   ar
    32    19    20   ar
    33    20    21    1
    34    21    22    3
    35    20    15   ar
    36    13     4    1
    37    13     8   ar
    38     1    14    1
@<TRIPOS>MOLECULE
*****
 36 38 0 0 0
SMALL
GASTEIGER

@<TRIPOS>ATOM
      1 N         140.0262  139.8161  160.3848 N.am    1  UNL1       -0.2531
      2 C         139.0242  139.9869  159.2816 C.2     1  UNL1        0.3135
      3 O         137.5573  139.8898  159.5792 O.2     1  UNL1       -0.2518
      4 N         139.4893  140.2549  157.8809 N.am    1  UNL1       -0.2282
      5 C         140.9562  140.3521  157.5834 C.3     1  UNL1        0.1015
      6 C         141.4213  140.6200  156.1827 C.3     1  UNL1        0.0268
      7 C         140.4193  140.7909  155.0796 C.3     1  UNL1        0.0310
      8 C         138.9524  140.6937  155.3771 C.ar    1  UNL1        0.0098
      9 C         137.9504  140.8646  154.2740 C.ar    1  UNL1        0.0013
     10 C         136.4835  140.7674  154.5715 C.ar    1  UNL1        0.0643
     11 CA        136.0184  140.4994  155.9722 C.ar    1  UNL1        0.1260
     12 N         137.0203  140.3286  157.0754 N.ar    1  UNL1       -0.2274
     13 C         138.4874  140.4258  156.7778 C.ar    1  UNL1        0.1345
     14 H         140.9890  139.8799  160.1895 H       1  UNL1        0.1578
     15 C         138.8466  140.4230  164.1251 C.ar    1  UNL1        0.1524
     16 C         139.3116  140.6910  162.7245 C.ar    1  UNL1        0.0721
     17 C         139.5612  139.5481  161.7855 C.ar    1  UNL1        0.1384
     18 N         139.3457  138.1373  162.2472 N.ar    1  UNL1       -0.2281
     19 C         138.8806  137.8694  163.6479 C.ar    1  UNL1        0.1136
     20 C         138.6311  139.0122  164.5869 C.ar    1  UNL1        0.1215
     21 C         138.1661  138.7443  165.9875 C.1     1  UNL1        0.1051
     22 N         137.7011  138.4763  167.3883 N.1     1  UNL1       -0.1907
     23 O         138.5972  141.5659  165.0641 O.3     1  UNL1       -0.4746
     24 C         139.7175  142.4932  165.4312 C.3     1  UNL1        0.2065
     25 C         140.9297  141.9623  166.1374 C.3     1  UNL1        0.0551
     26 C         141.7811  142.3442  164.9630 C.3     1  UNL1        0.0051
     27 C         140.0783  141.5804  167.3118 C.3     1  UNL1        0.0051
     28 C         142.1419  141.4314  166.8436 C.3     1  UNL1        0.0757
     29 C         142.1119  138.9795  165.9846 C.3     1  UNL1        0.0897
     30 N         142.2717  139.9606  167.1080 N.3     1  UNL1       -0.2702
     31 C         142.5612  139.4708  168.4960 C.3     1  UNL1        0.0897
     32 C         135.4815  140.9383  153.4684 C.3     1  UNL1        0.3425
     33 F         135.4185  139.9394  152.3511 F       1  UNL1       -0.1932
     34 F         134.5426  142.1080  153.4825 F       1  UNL1       -0.1932
     35 C         134.5514  140.4023  156.2698 C.2     1  UNL1        0.2530
     36 O         134.0702  139.5349  157.3950 O.2     1  UNL1       -0.2815
@<TRIPOS>BOND
     1    29    30    1
     2    30    31    1
     3    30    28    1
     4    28    25    1
     5    25    26    1
     6    25    27    1
     7    25    24    1
     8    24    23    1
     9    23    15    1
    10    15    16   ar
    11    16    17   ar
    12    17     1    1
    13     1     2   am
    14     2     3    2
    15     2     4   am
    16     4     5    1
    17     5     6    1
    18     6     7    1
    19     7     8    1
    20     8     9   ar
    21     9    10   ar
    22    10    32    1
    23    32    33    1
    24    32    34    1
    25    10    11   ar
    26    11    35    1
    27    35    36    2
    28    11    12   ar
    29    12    13   ar
    30    17    18   ar
    31    18    19   ar
    32    19    20   ar
    33    20    21    1
    34    21    22    3
    35    20    15   ar
    36    13     4    1
    37    13     8   ar
    38     1    14    1
@<TRIPOS>MOLECULE
*****
 36 38 0 0 0
SMALL
GASTEIGER

@<TRIPOS>ATOM
      1 N         142.5708  139.2865  159.8757 N.am    1  UNL1       -0.2531
      2 C         142.6947  138.0212  159.0796 C.2     1  UNL1        0.3135
      3 O         142.9745  136.7220  159.7751 O.2     1  UNL1       -0.2518
      4 N         142.5389  138.0552  157.5881 N.am    1  UNL1       -0.2282
      5 C         142.2592  139.3544  156.8927 C.3     1  UNL1        0.1015
      6 C         142.1034  139.3884  155.4012 C.3     1  UNL1        0.0268
      7 C         142.2273  138.1231  154.6051 C.3     1  UNL1        0.0310
      8 C         142.5071  136.8238  155.3006 C.ar    1  UNL1        0.0098
      9 C         142.6311  135.5586  154.5045 C.ar    1  UNL1        0.0013
     10 C         142.9108  134.2593  155.2000 C.ar    1  UNL1        0.0643
     11 CA        143.0666  134.2253  156.6915 C.ar    1  UNL1        0.1260
     12 N         142.9427  135.4906  157.4876 N.ar    1  UNL1       -0.2274
     13 C         142.6629  136.7899  156.7920 C.ar    1  UNL1        0.1345
     14 H         142.3871  140.1392  159.4192 H       1  UNL1        0.1578
     15 C         144.0292  139.9336  163.5094 C.ar    1  UNL1        0.1524
     16 C         143.8734  139.9675  162.0179 C.ar    1  UNL1        0.0721
     17 C         142.7265  139.2525  161.3671 C.ar    1  UNL1        0.1384
     18 N         141.7355  138.5036  162.2079 N.ar    1  UNL1       -0.2281
     19 C         141.8913  138.4697  163.6995 C.ar    1  UNL1        0.1136
     20 C         143.0382  139.1847  164.3502 C.ar    1  UNL1        0.1215
     21 C         143.1939  139.1507  165.8416 C.1     1  UNL1        0.1051
     22 N         143.3498  139.1167  167.3332 N.1     1  UNL1       -0.1907
     23 O         145.1761  140.6486  164.1601 O.3     1  UNL1       -0.4746
     24 C         145.4513  142.0847  163.8259 C.3     1  UNL1        0.2065
     25 C         144.3716  143.1131  163.9896 C.3     1  UNL1        0.0551
     26 C         144.4747  143.4533  162.5324 C.3     1  UNL1        0.0051
     27 C         144.2685  142.7730  165.4469 C.3     1  UNL1        0.0051
     28 C         143.2919  144.1414  164.1533 C.3     1  UNL1        0.0757
     29 C         141.3137  142.5341  163.6498 C.3     1  UNL1        0.0897
     30 N         141.9309  143.8991  163.5711 N.3     1  UNL1       -0.2702
     31 C         141.1871  145.0216  162.9103 C.3     1  UNL1        0.0897
     32 C         143.0348  132.9940  154.4039 C.3     1  UNL1        0.3425
     33 F         142.0915  132.7267  153.2687 F       1  UNL1       -0.1932
     34 F         144.1021  131.9961  154.7432 F       1  UNL1       -0.1932
     35 C         143.3464  132.9261  157.3870 C.2     1  UNL1        0.2530
     36 O         144.7046  132.6630  157.9668 O.2     1  UNL1       -0.2815
@<TRIPOS>BOND
     1    29    30    1
     2    30    31    1
     3    30    28    1
     4    28    25    1
     5    25    26    1
     6    25    27    1
     7    25    24    1
     8    24    23    1
     9    23    15    1
    10    15    16   ar
    11    16    17   ar
    12    17     1    1
    13     1     2   am
    14     2     3    2
    15     2     4   am
    16     4     5    1
    17     5     6    1
    18     6     7    1
    19     7     8    1
    20     8     9   ar
    21     9    10   ar
    22    10    32    1
    23    32    33    1
    24    32    34    1
    25    10    11   ar
    26    11    35    1
    27    35    36    2
    28    11    12   ar
    29    12    13   ar
    30    17    18   ar
    31    18    19   ar
    32    19    20   ar
    33    20    21    1
    34    21    22    3
    35    20    15   ar
    36    13     4    1
    37    13     8   ar
    38     1    14    1
