@<TRIPOS>MOLECULE
*****
 27 30 0 0 0
SMALL
GASTEIGER

@<TRIPOS>ATOM
      1 C         138.9300  139.4747  163.5480 C.ar    1  UNL1        0.0729
      2 C         138.7747  138.2833  164.4460 C.ar    1  UNL1        0.0109
      3 C         138.9407  138.4353  165.9291 C.ar    1  UNL1        0.0583
      4 C         139.2619  139.7786  166.5141 C.ar    1  UNL1        0.2297
      5 N         139.4172  140.9700  165.6161 N.ar    1  UNL1       -0.2097
      6 C         139.2513  140.8181  164.1331 C.ar    1  UNL1        0.1065
      7 O         137.4389  139.6134  161.4249 O.2     1  UNL1       -0.2699
      8 C         138.7640  139.3229  162.0650 C.2     1  UNL1        0.2506
      9 N         139.9232  138.8806  161.2220 N.am    1  UNL1       -0.2746
     10 C         141.2018  138.6165  161.9607 C.3     1  UNL1        0.0952
     11 C         142.5235  138.1674  161.4116 C.3     1  UNL1        0.0388
     12 C         142.8930  137.8715  159.9883 C.3     1  UNL1        0.0739
     13 N         142.0322  137.9515  158.7625 N.3     1  UNL1       -0.2725
     14 C         140.5892  138.3473  158.6573 C.3     1  UNL1        0.0938
     15 C         139.6506  138.7607  159.7519 C.3     1  UNL1        0.1110
     16 C         142.7031  137.5877  157.4712 C.3     1  UNL1        0.0576
     17 C         143.0556  136.3015  156.7846 C.3     1  UNL1        0.0160
     18 C         143.6519  137.0732  155.6450 C.3     1  UNL1        0.0028
     19 C         143.2995  138.3595  156.3315 C.3     1  UNL1        0.0160
     20 O         139.4279  139.9304  167.9972 O.3     1  UNL1       -0.4360
     21 C         140.5060  140.8183  168.5442 C.ar    1  UNL1        0.1494
     22 C         141.9223  140.3280  168.6051 C.ar    1  UNL1        0.0377
     23 C         143.0004  141.2160  169.1521 C.ar    1  UNL1        0.0054
     24 C         142.6623  142.5942  169.6382 C.ar    1  UNL1        0.0298
     25 C         141.2459  143.0844  169.5773 C.ar    1  UNL1        0.1432
     26 F         140.9077  144.4626  170.0634 F       1  UNL1       -0.2041
     27 C         140.1678  142.1965  169.0303 C.ar    1  UNL1        0.0672
@<TRIPOS>BOND
     1     7     8    2
     2     8     1    1
     3     1     2   ar
     4     2     3   ar
     5     3     4   ar
     6     4    20    1
     7    20    21    1
     8    21    22   ar
     9    22    23   ar
    10    23    24   ar
    11    24    25   ar
    12    25    26    1
    13    25    27   ar
    14     4     5   ar
    15     5     6   ar
    16     8     9   am
    17     9    10    1
    18    10    11    1
    19    11    12    1
    20    12    13    1
    21    13    16    1
    22    16    17    1
    23    17    18    1
    24    18    19    1
    25    13    14    1
    26    14    15    1
    27     6     1   ar
    28    15     9    1
    29    27    21   ar
    30    19    16    1
@<TRIPOS>MOLECULE
*****
 27 30 0 0 0
SMALL
GASTEIGER

@<TRIPOS>ATOM
      1 C         139.6926  138.9252  164.3957 C.ar    1  UNL1        0.0729
      2 C         138.4616  138.7817  165.2406 C.ar    1  UNL1        0.0109
      3 C         138.5194  139.0872  166.7080 C.ar    1  UNL1        0.0583
      4 C         139.8081  139.5360  167.3305 C.ar    1  UNL1        0.2297
      5 N         141.0392  139.6795  166.4856 N.ar    1  UNL1       -0.2097
      6 C         140.9815  139.3741  165.0182 C.ar    1  UNL1        0.1065
      7 O         139.9837  137.2474  162.4335 O.2     1  UNL1       -0.2699
      8 C         139.6349  138.6198  162.9282 C.2     1  UNL1        0.2506
      9 N         139.2285  139.6868  161.9555 N.am    1  UNL1       -0.2746
     10 C         138.9008  141.0226  162.5542 C.3     1  UNL1        0.0952
     11 C         138.4672  142.2786  161.8579 C.3     1  UNL1        0.0388
     12 C         138.2542  142.5088  160.3912 C.3     1  UNL1        0.0739
     13 N         138.4222  141.5402  159.2582 N.3     1  UNL1       -0.2725
     14 C         138.8447  140.1019  159.3124 C.3     1  UNL1        0.0938
     15 C         139.2036  139.2772  160.5128 C.3     1  UNL1        0.1110
     16 C         138.1289  142.0812  157.8904 C.3     1  UNL1        0.0576
     17 C         138.7183  143.1564  157.0262 C.3     1  UNL1        0.0160
     18 C         137.7142  142.8465  155.9558 C.3     1  UNL1        0.0028
     19 C         137.1248  141.7714  156.8199 C.3     1  UNL1        0.0160
     20 O         139.8658  139.8414  168.7980 O.3     1  UNL1       -0.4360
     21 C         140.7718  140.9248  169.3036 C.ar    1  UNL1        0.1494
     22 C         142.1937  140.6075  169.6605 C.ar    1  UNL1        0.0377
     23 C         143.0997  141.6909  170.1660 C.ar    1  UNL1        0.0054
     24 C         142.5837  143.0914  170.3147 C.ar    1  UNL1        0.0298
     25 C         141.1617  143.4086  169.9578 C.ar    1  UNL1        0.1432
     26 F         140.6457  144.8093  170.1065 F       1  UNL1       -0.2041
     27 C         140.2558  142.3253  169.4523 C.ar    1  UNL1        0.0672
@<TRIPOS>BOND
     1     7     8    2
     2     8     1    1
     3     1     2   ar
     4     2     3   ar
     5     3     4   ar
     6     4    20    1
     7    20    21    1
     8    21    22   ar
     9    22    23   ar
    10    23    24   ar
    11    24    25   ar
    12    25    26    1
    13    25    27   ar
    14     4     5   ar
    15     5     6   ar
    16     8     9   am
    17     9    10    1
    18    10    11    1
    19    11    12    1
    20    12    13    1
    21    13    16    1
    22    16    17    1
    23    17    18    1
    24    18    19    1
    25    13    14    1
    26    14    15    1
    27     6     1   ar
    28    15     9    1
    29    27    21   ar
    30    19    16    1
@<TRIPOS>MOLECULE
*****
 27 30 0 0 0
SMALL
GASTEIGER

@<TRIPOS>ATOM
      1 C         142.1863  138.1250  162.4011 C.ar    1  UNL1        0.0729
      2 C         141.0830  138.4239  161.4299 C.ar    1  UNL1        0.0109
      3 C         141.3763  138.4953  159.9605 C.ar    1  UNL1        0.0583
      4 C         142.7727  138.2679  159.4625 C.ar    1  UNL1        0.2297
      5 N         143.8760  137.9690  160.4337 N.ar    1  UNL1       -0.2097
      6 C         143.5829  137.8975  161.9030 C.ar    1  UNL1        0.1065
      7 O         141.2654  136.8211  164.4509 O.2     1  UNL1       -0.2699
      8 C         141.8932  138.0535  163.8704 C.2     1  UNL1        0.2506
      9 N         142.2278  139.2145  164.7593 N.am    1  UNL1       -0.2746
     10 C         142.8521  140.3965  164.0786 C.3     1  UNL1        0.0952
     11 C         143.2967  141.6960  164.6819 C.3     1  UNL1        0.0388
     12 C         143.2268  142.1342  166.1147 C.3     1  UNL1        0.0739
     13 N         142.6951  141.3815  167.2982 N.3     1  UNL1       -0.2725
     14 C         142.1020  140.0044  167.3411 C.3     1  UNL1        0.0938
     15 C         141.8940  139.0400  166.2112 C.3     1  UNL1        0.1110
     16 C         142.7660  142.1008  168.6125 C.3     1  UNL1        0.0576
     17 C         143.8461  142.3682  169.6185 C.3     1  UNL1        0.0160
     18 C         142.8662  143.1183  170.4712 C.3     1  UNL1        0.0028
     19 C         141.7860  142.8510  169.4653 C.3     1  UNL1        0.0160
     20 O         143.0659  138.3394  157.9931 O.3     1  UNL1       -0.4360
     21 C         142.4637  137.3326  157.0583 C.ar    1  UNL1        0.1494
     22 C         141.1443  137.6136  156.4023 C.ar    1  UNL1        0.0377
     23 C         140.5421  136.6068  155.4675 C.ar    1  UNL1        0.0054
     24 C         141.2593  135.3192  155.1887 C.ar    1  UNL1        0.0298
     25 C         142.5787  135.0384  155.8448 C.ar    1  UNL1        0.1432
     26 F         143.2958  133.7507  155.5660 F       1  UNL1       -0.2041
     27 C         143.1809  136.0451  156.7796 C.ar    1  UNL1        0.0672
@<TRIPOS>BOND
     1     7     8    2
     2     8     1    1
     3     1     2   ar
     4     2     3   ar
     5     3     4   ar
     6     4    20    1
     7    20    21    1
     8    21    22   ar
     9    22    23   ar
    10    23    24   ar
    11    24    25   ar
    12    25    26    1
    13    25    27   ar
    14     4     5   ar
    15     5     6   ar
    16     8     9   am
    17     9    10    1
    18    10    11    1
    19    11    12    1
    20    12    13    1
    21    13    16    1
    22    16    17    1
    23    17    18    1
    24    18    19    1
    25    13    14    1
    26    14    15    1
    27     6     1   ar
    28    15     9    1
    29    27    21   ar
    30    19    16    1
@<TRIPOS>MOLECULE
*****
 27 30 0 0 0
SMALL
GASTEIGER

@<TRIPOS>ATOM
      1 C         143.9213  142.3629  163.8489 C.ar    1  UNL1        0.0729
      2 C         143.0004  141.3997  164.5375 C.ar    1  UNL1        0.0109
      3 C         142.7933  141.4900  166.0204 C.ar    1  UNL1        0.0583
      4 C         143.5072  142.5433  166.8147 C.ar    1  UNL1        0.2297
      5 N         144.4281  143.5064  166.1261 N.ar    1  UNL1       -0.2097
      6 C         144.6352  143.4163  164.6432 C.ar    1  UNL1        0.1065
      7 O         145.1536  141.3307  161.8078 O.2     1  UNL1       -0.2699
      8 C         144.1284  142.2727  162.3660 C.2     1  UNL1        0.2506
      9 N         143.3104  143.1246  161.4413 N.am    1  UNL1       -0.2746
     10 C         142.3144  144.0312  162.1019 C.3     1  UNL1        0.0952
     11 C         141.3586  144.9944  161.4626 C.3     1  UNL1        0.0388
     12 C         141.1626  145.2888  160.0050 C.3     1  UNL1        0.0739
     13 N         141.8740  144.6929  158.8265 N.3     1  UNL1       -0.2725
     14 C         142.9572  143.6553  158.8147 C.3     1  UNL1        0.0938
     15 C         143.5964  142.9574  159.9784 C.3     1  UNL1        0.1110
     16 C         141.4456  145.2019  157.4821 C.3     1  UNL1        0.0576
     17 C         140.2848  146.0034  156.9720 C.3     1  UNL1        0.0160
     18 C         140.8398  145.9217  155.5808 C.3     1  UNL1        0.0028
     19 C         142.0006  145.1202  156.0909 C.3     1  UNL1        0.0160
     20 O         143.3000  142.6335  168.2976 O.3     1  UNL1       -0.4360
     21 C         142.3629  141.6839  168.9832 C.ar    1  UNL1        0.1494
     22 C         142.8318  140.3105  169.3626 C.ar    1  UNL1        0.0377
     23 C         141.8945  139.3609  170.0481 C.ar    1  UNL1        0.0054
     24 C         140.4886  139.7846  170.3542 C.ar    1  UNL1        0.0298
     25 C         140.0198  141.1581  169.9747 C.ar    1  UNL1        0.1432
     26 F         138.6138  141.5818  170.2808 F       1  UNL1       -0.2041
     27 C         140.9570  142.1077  169.2892 C.ar    1  UNL1        0.0672
@<TRIPOS>BOND
     1     7     8    2
     2     8     1    1
     3     1     2   ar
     4     2     3   ar
     5     3     4   ar
     6     4    20    1
     7    20    21    1
     8    21    22   ar
     9    22    23   ar
    10    23    24   ar
    11    24    25   ar
    12    25    26    1
    13    25    27   ar
    14     4     5   ar
    15     5     6   ar
    16     8     9   am
    17     9    10    1
    18    10    11    1
    19    11    12    1
    20    12    13    1
    21    13    16    1
    22    16    17    1
    23    17    18    1
    24    18    19    1
    25    13    14    1
    26    14    15    1
    27     6     1   ar
    28    15     9    1
    29    27    21   ar
    30    19    16    1
@<TRIPOS>MOLECULE
*****
 27 30 0 0 0
SMALL
GASTEIGER

@<TRIPOS>ATOM
      1 C         140.3854  144.1660  162.5397 C.ar    1  UNL1        0.0729
      2 C         141.5271  144.4743  163.4623 C.ar    1  UNL1        0.0109
      3 C         141.8137  143.5743  164.6277 C.ar    1  UNL1        0.0583
      4 C         140.9586  142.3660  164.8702 C.ar    1  UNL1        0.2297
      5 N         139.8169  142.0577  163.9475 N.ar    1  UNL1       -0.2097
      6 C         139.5302  142.9576  162.7823 C.ar    1  UNL1        0.1065
      7 O         139.1627  146.2268  161.5358 O.2     1  UNL1       -0.2699
      8 C         140.0987  145.0659  161.3744 C.2     1  UNL1        0.2506
      9 N         140.7480  144.8049  160.0476 N.am    1  UNL1       -0.2746
     10 C         141.6658  143.6196  159.9943 C.3     1  UNL1        0.0952
     11 C         142.4560  143.1003  158.8297 C.3     1  UNL1        0.0388
     12 C         142.5235  143.6381  157.4312 C.3     1  UNL1        0.0739
     13 N         141.8176  144.8279  156.8515 N.3     1  UNL1       -0.2725
     14 C         140.8698  145.7739  157.5274 C.3     1  UNL1        0.0938
     15 C         140.3938  145.7635  158.9498 C.3     1  UNL1        0.1110
     16 C         142.0964  145.1090  155.4047 C.3     1  UNL1        0.0576
     17 C         141.3438  145.7708  154.2885 C.3     1  UNL1        0.0160
     18 C         142.4906  145.5065  153.3586 C.3     1  UNL1        0.0028
     19 C         143.2433  144.8447  154.4746 C.3     1  UNL1        0.0160
     20 O         141.2453  141.4661  166.0356 O.3     1  UNL1       -0.4360
     21 C         141.5467  142.0551  167.3818 C.ar    1  UNL1        0.1494
     22 C         140.4670  142.7547  168.1529 C.ar    1  UNL1        0.0377
     23 C         140.7684  143.3437  169.4992 C.ar    1  UNL1        0.0054
     24 C         142.1494  143.2331  170.0741 C.ar    1  UNL1        0.0298
     25 C         143.2290  142.5334  169.3028 C.ar    1  UNL1        0.1432
     26 F         144.6100  142.4228  169.8778 F       1  UNL1       -0.2041
     27 C         142.9276  141.9444  167.9566 C.ar    1  UNL1        0.0672
@<TRIPOS>BOND
     1     7     8    2
     2     8     1    1
     3     1     2   ar
     4     2     3   ar
     5     3     4   ar
     6     4    20    1
     7    20    21    1
     8    21    22   ar
     9    22    23   ar
    10    23    24   ar
    11    24    25   ar
    12    25    26    1
    13    25    27   ar
    14     4     5   ar
    15     5     6   ar
    16     8     9   am
    17     9    10    1
    18    10    11    1
    19    11    12    1
    20    12    13    1
    21    13    16    1
    22    16    17    1
    23    17    18    1
    24    18    19    1
    25    13    14    1
    26    14    15    1
    27     6     1   ar
    28    15     9    1
    29    27    21   ar
    30    19    16    1
@<TRIPOS>MOLECULE
*****
 27 30 0 0 0
SMALL
GASTEIGER

@<TRIPOS>ATOM
      1 C         141.0147  139.0932  158.8996 C.ar    1  UNL1        0.0729
      2 C         140.0272  138.3768  158.0270 C.ar    1  UNL1        0.0109
      3 C         140.5095  137.4165  156.9804 C.ar    1  UNL1        0.0583
      4 C         141.9792  137.1726  156.8065 C.ar    1  UNL1        0.2297
      5 N         142.9668  137.8890  157.6791 N.ar    1  UNL1       -0.2097
      6 C         142.4846  138.8493  158.7257 C.ar    1  UNL1        0.1065
      7 O         140.2227  141.4735  159.5755 O.2     1  UNL1       -0.2699
      8 C         140.5326  140.0535  159.9462 C.2     1  UNL1        0.2506
      9 N         140.3602  139.5937  161.3636 N.am    1  UNL1       -0.2746
     10 C         140.6975  138.1560  161.6269 C.3     1  UNL1        0.0952
     11 C         140.6313  137.4019  162.9220 C.3     1  UNL1        0.0388
     12 C         140.2114  137.8993  164.2733 C.3     1  UNL1        0.0739
     13 N         139.7542  139.2736  164.6636 N.3     1  UNL1       -0.2725
     14 C         139.6038  140.4899  163.7988 C.3     1  UNL1        0.0938
     15 C         139.8735  140.6323  162.3301 C.3     1  UNL1        0.1110
     16 C         139.4005  139.4556  166.1099 C.3     1  UNL1        0.0576
     17 C         138.3090  138.9510  167.0066 C.3     1  UNL1        0.0160
     18 C         138.9003  139.7130  168.1553 C.3     1  UNL1        0.0028
     19 C         139.9919  140.2176  167.2587 C.3     1  UNL1        0.0160
     20 O         142.4614  136.2123  155.7599 O.3     1  UNL1       -0.4360
     21 C         142.6595  134.7657  156.1035 C.ar    1  UNL1        0.1494
     22 C         141.7645  133.7227  155.5024 C.ar    1  UNL1        0.0377
     23 C         141.9627  132.2761  155.8461 C.ar    1  UNL1        0.0054
     24 C         143.0557  131.8725  156.7908 C.ar    1  UNL1        0.0298
     25 C         143.9506  132.9156  157.3918 C.ar    1  UNL1        0.1432
     26 F         145.0437  132.5120  158.3365 F       1  UNL1       -0.2041
     27 C         143.7525  134.3622  157.0482 C.ar    1  UNL1        0.0672
@<TRIPOS>BOND
     1     7     8    2
     2     8     1    1
     3     1     2   ar
     4     2     3   ar
     5     3     4   ar
     6     4    20    1
     7    20    21    1
     8    21    22   ar
     9    22    23   ar
    10    23    24   ar
    11    24    25   ar
    12    25    26    1
    13    25    27   ar
    14     4     5   ar
    15     5     6   ar
    16     8     9   am
    17     9    10    1
    18    10    11    1
    19    11    12    1
    20    12    13    1
    21    13    16    1
    22    16    17    1
    23    17    18    1
    24    18    19    1
    25    13    14    1
    26    14    15    1
    27     6     1   ar
    28    15     9    1
    29    27    21   ar
    30    19    16    1
@<TRIPOS>MOLECULE
*****
 27 30 0 0 0
SMALL
GASTEIGER

@<TRIPOS>ATOM
      1 C         138.7525  140.5971  164.1104 C.ar    1  UNL1        0.0729
      2 C         138.1083  139.6180  165.0465 C.ar    1  UNL1        0.0109
      3 C         138.7038  139.3724  166.4012 C.ar    1  UNL1        0.0583
      4 C         139.9434  140.1059  166.8197 C.ar    1  UNL1        0.2297
      5 N         140.5876  141.0850  165.8837 N.ar    1  UNL1       -0.2097
      6 C         139.9922  141.3307  164.5290 C.ar    1  UNL1        0.1065
      7 O         136.9658  141.7429  162.6121 O.2     1  UNL1       -0.2699
      8 C         138.1571  140.8428  162.7558 C.2     1  UNL1        0.2506
      9 N         138.7529  140.1883  161.5447 N.am    1  UNL1       -0.2746
     10 C         139.9409  139.3083  161.7987 C.3     1  UNL1        0.0952
     11 C         140.7514  138.5230  160.8105 C.3     1  UNL1        0.0388
     12 C         140.5741  138.4238  159.3244 C.3     1  UNL1        0.0739
     13 N         139.5426  139.0853  158.4593 N.3     1  UNL1       -0.2725
     14 C         138.4335  140.0094  158.8667 C.3     1  UNL1        0.0938
     15 C         138.0822  140.5003  160.2399 C.3     1  UNL1        0.1110
     16 C         139.6319  138.7827  156.9929 C.3     1  UNL1        0.0576
     17 C         139.8306  139.6005  155.7512 C.3     1  UNL1        0.0160
     18 C         139.7582  138.3546  154.9190 C.3     1  UNL1        0.0028
     19 C         139.5595  137.5367  156.1606 C.3     1  UNL1        0.0160
     20 O         140.5389  139.8602  168.1745 O.3     1  UNL1       -0.4360
     21 C         141.2882  140.9552  168.8741 C.ar    1  UNL1        0.1494
     22 C         142.7260  140.7567  169.2526 C.ar    1  UNL1        0.0377
     23 C         143.4753  141.8517  169.9523 C.ar    1  UNL1        0.0054
     24 C         142.7869  143.1451  170.2734 C.ar    1  UNL1        0.0298
     25 C         141.3491  143.3435  169.8949 C.ar    1  UNL1        0.1432
     26 F         140.6606  144.6369  170.2160 F       1  UNL1       -0.2041
     27 C         140.5997  142.2485  169.1952 C.ar    1  UNL1        0.0672
@<TRIPOS>BOND
     1     7     8    2
     2     8     1    1
     3     1     2   ar
     4     2     3   ar
     5     3     4   ar
     6     4    20    1
     7    20    21    1
     8    21    22   ar
     9    22    23   ar
    10    23    24   ar
    11    24    25   ar
    12    25    26    1
    13    25    27   ar
    14     4     5   ar
    15     5     6   ar
    16     8     9   am
    17     9    10    1
    18    10    11    1
    19    11    12    1
    20    12    13    1
    21    13    16    1
    22    16    17    1
    23    17    18    1
    24    18    19    1
    25    13    14    1
    26    14    15    1
    27     6     1   ar
    28    15     9    1
    29    27    21   ar
    30    19    16    1
@<TRIPOS>MOLECULE
*****
 27 30 0 0 0
SMALL
GASTEIGER

@<TRIPOS>ATOM
      1 C         139.6320  139.8948  163.6724 C.ar    1  UNL1        0.0729
      2 C         138.4310  139.9484  164.5695 C.ar    1  UNL1        0.0109
      3 C         138.6058  139.9197  166.0591 C.ar    1  UNL1        0.0583
      4 C         139.9813  139.8374  166.6515 C.ar    1  UNL1        0.2297
      5 N         141.1822  139.7838  165.7543 N.ar    1  UNL1       -0.2097
      6 C         141.0076  139.8125  164.2649 C.ar    1  UNL1        0.1065
      7 O         139.1032  138.6666  161.4449 O.2     1  UNL1       -0.2699
      8 C         139.4574  139.9235  162.1829 C.2     1  UNL1        0.2506
      9 N         139.6369  141.2091  161.4313 N.am    1  UNL1       -0.2746
     10 C         139.9899  142.4059  162.2640 C.3     1  UNL1        0.0952
     11 C         140.2329  143.8172  161.8175 C.3     1  UNL1        0.0388
     12 C         140.1829  144.3802  160.4281 C.3     1  UNL1        0.0739
     13 N         139.8776  143.6711  159.1420 N.3     1  UNL1       -0.2725
     14 C         139.5469  142.2238  158.9277 C.3     1  UNL1        0.0938
     15 C         139.4398  141.1281  159.9467 C.3     1  UNL1        0.1110
     16 C         139.9069  144.5217  157.9070 C.3     1  UNL1        0.0576
     17 C         139.5560  144.3093  156.4641 C.3     1  UNL1        0.0160
     18 C         139.9484  145.7248  156.1602 C.3     1  UNL1        0.0028
     19 C         140.2993  145.9373  157.6030 C.3     1  UNL1        0.0160
     20 O         140.1559  139.8087  168.1410 O.3     1  UNL1       -0.4360
     21 C         140.9808  140.8617  168.8199 C.ar    1  UNL1        0.1494
     22 C         142.3912  140.5598  169.2316 C.ar    1  UNL1        0.0377
     23 C         143.2160  141.6128  169.9105 C.ar    1  UNL1        0.0054
     24 C         142.6304  142.9677  170.1776 C.ar    1  UNL1        0.0298
     25 C         141.2200  143.2695  169.7658 C.ar    1  UNL1        0.1432
     26 F         140.6344  144.6245  170.0330 F       1  UNL1       -0.2041
     27 C         140.3951  142.2165  169.0870 C.ar    1  UNL1        0.0672
@<TRIPOS>BOND
     1     7     8    2
     2     8     1    1
     3     1     2   ar
     4     2     3   ar
     5     3     4   ar
     6     4    20    1
     7    20    21    1
     8    21    22   ar
     9    22    23   ar
    10    23    24   ar
    11    24    25   ar
    12    25    26    1
    13    25    27   ar
    14     4     5   ar
    15     5     6   ar
    16     8     9   am
    17     9    10    1
    18    10    11    1
    19    11    12    1
    20    12    13    1
    21    13    16    1
    22    16    17    1
    23    17    18    1
    24    18    19    1
    25    13    14    1
    26    14    15    1
    27     6     1   ar
    28    15     9    1
    29    27    21   ar
    30    19    16    1
@<TRIPOS>MOLECULE
*****
 27 30 0 0 0
SMALL
GASTEIGER

@<TRIPOS>ATOM
      1 C         139.3291  139.3857  159.4747 C.ar    1  UNL1        0.0729
      2 C         140.6993  138.8646  159.7925 C.ar    1  UNL1        0.0109
      3 C         140.9669  138.2188  161.1197 C.ar    1  UNL1        0.0583
      4 C         139.8645  138.0942  162.1290 C.ar    1  UNL1        0.2297
      5 N         138.4943  138.6153  161.8113 N.ar    1  UNL1       -0.2097
      6 C         138.2265  139.2610  160.4842 C.ar    1  UNL1        0.1065
      7 O         138.5543  139.2075  157.0013 O.2     1  UNL1       -0.2699
      8 C         139.0614  140.0314  158.1476 C.2     1  UNL1        0.2506
      9 N         139.3007  141.5011  157.9667 N.am    1  UNL1       -0.2746
     10 C         139.8076  142.2314  159.1749 C.3     1  UNL1        0.0952
     11 C         140.1405  143.6872  159.3164 C.3     1  UNL1        0.0388
     12 C         140.0487  144.7720  158.2847 C.3     1  UNL1        0.0739
     13 N         139.6014  144.6693  156.8566 N.3     1  UNL1       -0.2725
     14 C         139.1354  143.4561  156.1076 C.3     1  UNL1        0.0938
     15 C         139.0016  142.0461  156.6017 C.3     1  UNL1        0.1110
     16 C         139.6229  145.9487  156.0741 C.3     1  UNL1        0.0576
     17 C         140.0928  146.3480  154.7066 C.3     1  UNL1        0.0160
     18 C         139.6535  147.7583  154.9674 C.3     1  UNL1        0.0028
     19 C         139.1836  147.3591  156.3348 C.3     1  UNL1        0.0160
     20 O         140.1322  137.4484  163.4563 O.3     1  UNL1       -0.4360
     21 C         139.7131  138.1348  164.7224 C.ar    1  UNL1        0.1494
     22 C         140.5310  139.2681  165.2672 C.ar    1  UNL1        0.0377
     23 C         140.1118  139.9544  166.5335 C.ar    1  UNL1        0.0054
     24 C         138.8749  139.5076  167.2548 C.ar    1  UNL1        0.0298
     25 C         138.0571  138.3743  166.7099 C.ar    1  UNL1        0.1432
     26 F         136.8202  137.9274  167.4313 F       1  UNL1       -0.2041
     27 C         138.4762  137.6879  165.4437 C.ar    1  UNL1        0.0672
@<TRIPOS>BOND
     1     7     8    2
     2     8     1    1
     3     1     2   ar
     4     2     3   ar
     5     3     4   ar
     6     4    20    1
     7    20    21    1
     8    21    22   ar
     9    22    23   ar
    10    23    24   ar
    11    24    25   ar
    12    25    26    1
    13    25    27   ar
    14     4     5   ar
    15     5     6   ar
    16     8     9   am
    17     9    10    1
    18    10    11    1
    19    11    12    1
    20    12    13    1
    21    13    16    1
    22    16    17    1
    23    17    18    1
    24    18    19    1
    25    13    14    1
    26    14    15    1
    27     6     1   ar
    28    15     9    1
    29    27    21   ar
    30    19    16    1
