@<TRIPOS>MOLECULE
*****
 24 27 0 0 0
SMALL
GASTEIGER

@<TRIPOS>ATOM
      1 O         138.1048  139.0498  162.5241 O.2     1  UNL1       -0.2526
      2 C         139.5517  138.6632  162.6103 C.2     1  UNL1        0.3039
      3 N         140.1988  138.4738  163.9502 N.am    1  UNL1       -0.2901
      4 N         140.3513  138.4660  161.3566 N.am    1  UNL1       -0.2641
      5 C         139.7040  138.6554  160.0167 C.3     1  UNL1        0.0969
      6 C         140.5036  138.4583  158.7630 C.3     1  UNL1        0.0459
      7 C         141.9504  138.0717  158.8492 C.3     1  UNL1        0.1086
      8 C         142.5976  137.8823  160.1891 C.3     1  UNL1        0.0459
      9 C         141.7980  138.0795  161.4428 C.3     1  UNL1        0.0969
     10 H         141.1484  138.2201  164.0068 H       1  UNL1        0.1509
     11 N         142.7500  137.8745  157.5955 N.ar    1  UNL1       -0.2512
     12 C         142.9166  136.5837  156.8498 C.ar    1  UNL1        0.0966
     13 C         143.7929  136.8450  155.6608 C.ar    1  UNL1        0.0427
     14 C         144.1681  138.2973  155.6717 C.ar    1  UNL1        0.1217
     15 N         143.5235  138.9335  156.8674 N.ar    1  UNL1       -0.1677
     16 C         139.3992  138.6710  165.2039 C.3     1  UNL1        0.0774
     17 C         138.2417  138.2922  166.0794 C.3     1  UNL1        0.0259
     18 C         139.1719  139.3913  166.4998 C.3     1  UNL1        0.0420
     19 C         139.5777  140.4418  167.4907 C.ar    1  UNL1       -0.0208
     20 C         140.2575  141.6935  167.0207 C.ar    1  UNL1       -0.0042
     21 C         140.6633  142.7439  168.0116 C.ar    1  UNL1       -0.0003
     22 C         140.3891  142.5427  169.4726 C.ar    1  UNL1       -0.0000
     23 C         139.7093  141.2909  169.9426 C.ar    1  UNL1       -0.0003
     24 C         139.3035  140.2405  168.9517 C.ar    1  UNL1       -0.0042
@<TRIPOS>BOND
     1     1     2    2
     2     2     3   am
     3     3    16    1
     4    16    17    1
     5    17    18    1
     6    18    19    1
     7    19    20   ar
     8    20    21   ar
     9    21    22   ar
    10    22    23   ar
    11    23    24   ar
    12     2     4   am
    13     4     5    1
    14     5     6    1
    15     6     7    1
    16     7    11    1
    17    11    12   ar
    18    12    13   ar
    19    13    14   ar
    20    14    15   ar
    21     7     8    1
    22     8     9    1
    23    18    16    1
    24    24    19   ar
    25     9     4    1
    26    15    11   ar
    27     3    10    1
@<TRIPOS>MOLECULE
*****
 24 27 0 0 0
SMALL
GASTEIGER

@<TRIPOS>ATOM
      1 O         138.5087  138.1150  163.3863 O.2     1  UNL1       -0.2526
      2 C         138.4321  139.6123  163.3383 C.2     1  UNL1        0.3039
      3 N         138.3829  140.4020  164.6126 N.am    1  UNL1       -0.2901
      4 N         138.4048  140.3199  162.0159 N.am    1  UNL1       -0.2641
      5 C         138.4540  139.5301  160.7416 C.3     1  UNL1        0.0969
      6 C         138.4266  140.2377  159.4192 C.3     1  UNL1        0.0459
      7 C         138.3500  141.7350  159.3712 C.3     1  UNL1        0.1086
      8 C         138.3008  142.5247  160.6455 C.3     1  UNL1        0.0459
      9 C         138.3282  141.8171  161.9679 C.3     1  UNL1        0.0969
     10 H         138.3326  141.3847  164.5811 H       1  UNL1        0.1509
     11 N         138.3226  142.4425  158.0489 N.ar    1  UNL1       -0.2512
     12 C         137.3441  142.1987  156.9385 C.ar    1  UNL1        0.0966
     13 C         137.6857  143.1237  155.8081 C.ar    1  UNL1        0.0427
     14 C         138.8754  143.9391  156.2198 C.ar    1  UNL1        0.1217
     15 N         139.2691  143.5182  157.6047 N.ar    1  UNL1       -0.1677
     16 C         138.4103  139.6944  165.9349 C.3     1  UNL1        0.0774
     17 C         137.8770  138.6340  166.8521 C.3     1  UNL1        0.0259
     18 C         138.9909  139.5293  167.3081 C.3     1  UNL1        0.0420
     19 C         139.9692  139.9508  168.3642 C.ar    1  UNL1       -0.0208
     20 C         139.4758  140.3964  169.7087 C.ar    1  UNL1       -0.0042
     21 C         140.4541  140.8179  170.7647 C.ar    1  UNL1       -0.0003
     22 C         141.9259  140.7939  170.4761 C.ar    1  UNL1       -0.0000
     23 C         142.4193  140.3484  169.1315 C.ar    1  UNL1       -0.0003
     24 C         141.4410  139.9268  168.0756 C.ar    1  UNL1       -0.0042
@<TRIPOS>BOND
     1     1     2    2
     2     2     3   am
     3     3    16    1
     4    16    17    1
     5    17    18    1
     6    18    19    1
     7    19    20   ar
     8    20    21   ar
     9    21    22   ar
    10    22    23   ar
    11    23    24   ar
    12     2     4   am
    13     4     5    1
    14     5     6    1
    15     6     7    1
    16     7    11    1
    17    11    12   ar
    18    12    13   ar
    19    13    14   ar
    20    14    15   ar
    21     7     8    1
    22     8     9    1
    23    18    16    1
    24    24    19   ar
    25     9     4    1
    26    15    11   ar
    27     3    10    1
@<TRIPOS>MOLECULE
*****
 24 27 0 0 0
SMALL
GASTEIGER

@<TRIPOS>ATOM
      1 O         139.5192  143.0065  165.5021 O.2     1  UNL1       -0.2526
      2 C         139.5882  142.2192  164.2271 C.2     1  UNL1        0.3039
      3 N         139.3135  140.7446  164.2404 N.am    1  UNL1       -0.2901
      4 N         139.9319  142.9065  162.9389 N.am    1  UNL1       -0.2641
      5 C         140.2066  144.3811  162.9256 C.3     1  UNL1        0.0969
      6 C         140.5503  145.0684  161.6374 C.3     1  UNL1        0.0459
      7 C         140.6193  144.2811  160.3625 C.3     1  UNL1        0.1086
      8 C         140.3446  142.8065  160.3758 C.3     1  UNL1        0.0459
      9 C         140.0009  142.1192  161.6640 C.3     1  UNL1        0.0969
     10 H         139.3588  140.2279  163.4036 H       1  UNL1        0.1509
     11 N         140.9630  144.9684  159.0743 N.ar    1  UNL1       -0.2512
     12 C         139.9884  145.5978  158.1234 C.ar    1  UNL1        0.0966
     13 C         140.7647  146.1654  156.9722 C.ar    1  UNL1        0.0427
     14 C         142.2190  145.8868  157.2116 C.ar    1  UNL1        0.1217
     15 N         142.3415  145.1470  158.5107 N.ar    1  UNL1       -0.1677
     16 C         138.9699  140.0573  165.5286 C.3     1  UNL1        0.0774
     17 C         138.0880  139.1300  166.3111 C.3     1  UNL1        0.0259
     18 C         139.2564  139.7942  166.9773 C.3     1  UNL1        0.0420
     19 C         140.0965  140.0258  168.1983 C.ar    1  UNL1       -0.0208
     20 C         141.5905  139.9261  168.1106 C.ar    1  UNL1       -0.0042
     21 C         142.4305  140.1577  169.3316 C.ar    1  UNL1       -0.0003
     22 C         141.7764  140.4890  170.6402 C.ar    1  UNL1       -0.0000
     23 C         140.2823  140.5887  170.7278 C.ar    1  UNL1       -0.0003
     24 C         139.4423  140.3571  169.5068 C.ar    1  UNL1       -0.0042
@<TRIPOS>BOND
     1     1     2    2
     2     2     3   am
     3     3    16    1
     4    16    17    1
     5    17    18    1
     6    18    19    1
     7    19    20   ar
     8    20    21   ar
     9    21    22   ar
    10    22    23   ar
    11    23    24   ar
    12     2     4   am
    13     4     5    1
    14     5     6    1
    15     6     7    1
    16     7    11    1
    17    11    12   ar
    18    12    13   ar
    19    13    14   ar
    20    14    15   ar
    21     7     8    1
    22     8     9    1
    23    18    16    1
    24    24    19   ar
    25     9     4    1
    26    15    11   ar
    27     3    10    1
@<TRIPOS>MOLECULE
*****
 24 27 0 0 0
SMALL
GASTEIGER

@<TRIPOS>ATOM
      1 O         137.4446  140.8484  163.7004 O.2     1  UNL1       -0.2526
      2 C         138.2571  139.7151  163.1475 C.2     1  UNL1        0.3039
      3 N         138.7943  138.6589  164.0671 N.am    1  UNL1       -0.2901
      4 N         138.5324  139.6382  161.6750 N.am    1  UNL1       -0.2641
      5 C         137.9952  140.6946  160.7554 C.3     1  UNL1        0.0969
      6 C         138.2705  140.6177  159.2829 C.3     1  UNL1        0.0459
      7 C         139.0830  139.4844  158.7300 C.3     1  UNL1        0.1086
      8 C         139.6202  138.4282  159.6496 C.3     1  UNL1        0.0459
      9 C         139.3449  138.5051  161.1221 C.3     1  UNL1        0.0969
     10 H         139.3275  137.9151  163.7042 H       1  UNL1        0.1509
     11 N         139.3583  139.4075  157.2575 N.ar    1  UNL1       -0.2512
     12 C         140.7124  139.4116  156.6123 C.ar    1  UNL1        0.0966
     13 C         140.5188  139.3197  155.1277 C.ar    1  UNL1        0.0427
     14 C         139.0450  139.2587  154.8553 C.ar    1  UNL1        0.1217
     15 N         138.3278  139.3130  156.1716 N.ar    1  UNL1       -0.1677
     16 C         138.5190  138.7358  165.5396 C.3     1  UNL1        0.0774
     17 C         137.8085  138.2224  166.7569 C.3     1  UNL1        0.0259
     18 C         138.7526  139.3823  166.8728 C.3     1  UNL1        0.0420
     19 C         139.4326  140.4252  167.7095 C.ar    1  UNL1       -0.0208
     20 C         139.4159  140.3149  169.2053 C.ar    1  UNL1       -0.0042
     21 C         140.0959  141.3578  170.0418 C.ar    1  UNL1       -0.0003
     22 C         140.7925  142.5111  169.3826 C.ar    1  UNL1       -0.0000
     23 C         140.8092  142.6215  167.8868 C.ar    1  UNL1       -0.0003
     24 C         140.1292  141.5786  167.0502 C.ar    1  UNL1       -0.0042
@<TRIPOS>BOND
     1     1     2    2
     2     2     3   am
     3     3    16    1
     4    16    17    1
     5    17    18    1
     6    18    19    1
     7    19    20   ar
     8    20    21   ar
     9    21    22   ar
    10    22    23   ar
    11    23    24   ar
    12     2     4   am
    13     4     5    1
    14     5     6    1
    15     6     7    1
    16     7    11    1
    17    11    12   ar
    18    12    13   ar
    19    13    14   ar
    20    14    15   ar
    21     7     8    1
    22     8     9    1
    23    18    16    1
    24    24    19   ar
    25     9     4    1
    26    15    11   ar
    27     3    10    1
@<TRIPOS>MOLECULE
*****
 24 27 0 0 0
SMALL
GASTEIGER

@<TRIPOS>ATOM
      1 O         141.6263  144.3206  156.0111 O.2     1  UNL1       -0.2526
      2 C         141.2110  144.7632  157.3829 C.2     1  UNL1        0.3039
      3 N         140.0594  145.7099  157.5489 N.am    1  UNL1       -0.2901
      4 N         141.9472  144.2589  158.5886 N.am    1  UNL1       -0.2641
      5 C         143.0988  143.3121  158.4225 C.3     1  UNL1        0.0969
      6 C         143.8350  142.8079  159.6282 C.3     1  UNL1        0.0459
      7 C         143.4196  143.2504  161.0000 C.3     1  UNL1        0.1086
      8 C         142.2680  144.1971  161.1660 C.3     1  UNL1        0.0459
      9 C         141.5318  144.7014  159.9603 C.3     1  UNL1        0.0969
     10 H         139.7868  146.0003  158.4492 H       1  UNL1        0.1509
     11 N         144.1558  142.7461  162.2057 N.ar    1  UNL1       -0.2512
     12 C         143.8199  143.0514  163.6354 C.ar    1  UNL1        0.0966
     13 C         144.8136  142.3420  164.5067 C.ar    1  UNL1        0.0427
     14 C         145.7637  141.5983  163.6156 C.ar    1  UNL1        0.1217
     15 N         145.3571  141.8481  162.1935 N.ar    1  UNL1       -0.1677
     16 C         139.3232  146.2141  156.3432 C.3     1  UNL1        0.0774
     17 C         138.4009  145.9662  155.1866 C.3     1  UNL1        0.0259
     18 C         138.9705  147.3355  155.4115 C.3     1  UNL1        0.0420
     19 C         139.0957  148.7735  155.0034 C.ar    1  UNL1       -0.0208
     20 C         138.4676  149.8481  155.8404 C.ar    1  UNL1       -0.0042
     21 C         138.5928  151.2860  155.4323 C.ar    1  UNL1       -0.0003
     22 C         139.3462  151.6494  154.1871 C.ar    1  UNL1       -0.0000
     23 C         139.9743  150.5748  153.3501 C.ar    1  UNL1       -0.0003
     24 C         139.8491  149.1368  153.7582 C.ar    1  UNL1       -0.0042
@<TRIPOS>BOND
     1     1     2    2
     2     2     3   am
     3     3    16    1
     4    16    17    1
     5    17    18    1
     6    18    19    1
     7    19    20   ar
     8    20    21   ar
     9    21    22   ar
    10    22    23   ar
    11    23    24   ar
    12     2     4   am
    13     4     5    1
    14     5     6    1
    15     6     7    1
    16     7    11    1
    17    11    12   ar
    18    12    13   ar
    19    13    14   ar
    20    14    15   ar
    21     7     8    1
    22     8     9    1
    23    18    16    1
    24    24    19   ar
    25     9     4    1
    26    15    11   ar
    27     3    10    1
@<TRIPOS>MOLECULE
*****
 24 27 0 0 0
SMALL
GASTEIGER

@<TRIPOS>ATOM
      1 O         141.1042  143.1739  165.2544 O.2     1  UNL1       -0.2526
      2 C         141.6421  142.4031  164.0853 C.2     1  UNL1        0.3039
      3 N         142.2533  141.0497  164.2966 N.am    1  UNL1       -0.2901
      4 N         141.5689  142.9858  162.7051 N.am    1  UNL1       -0.2641
      5 C         140.9577  144.3394  162.4939 C.3     1  UNL1        0.0969
      6 C         140.8844  144.9221  161.1137 C.3     1  UNL1        0.0459
      7 C         141.4224  144.1513  159.9446 C.3     1  UNL1        0.1086
      8 C         142.0335  142.7979  160.1559 C.3     1  UNL1        0.0459
      9 C         142.1068  142.2151  161.5361 C.3     1  UNL1        0.0969
     10 H         142.6063  140.5438  163.5293 H       1  UNL1        0.1509
     11 N         141.3491  144.7340  158.5644 N.ar    1  UNL1       -0.2512
     12 C         140.2971  144.4380  157.5370 C.ar    1  UNL1        0.0966
     13 C         140.6128  145.2361  156.3068 C.ar    1  UNL1        0.0427
     14 C         141.8600  146.0255  156.5739 C.ar    1  UNL1        0.1217
     15 N         142.3151  145.7152  157.9692 N.ar    1  UNL1       -0.1677
     16 C         142.3265  140.4669  165.6768 C.3     1  UNL1        0.0774
     17 C         142.8437  139.4212  166.6196 C.3     1  UNL1        0.0259
     18 C         141.9361  140.5034  167.1246 C.3     1  UNL1        0.0420
     19 C         141.1867  141.1493  168.2522 C.ar    1  UNL1       -0.0208
     20 C         140.0718  140.4110  168.9318 C.ar    1  UNL1       -0.0042
     21 C         139.3224  141.0569  170.0593 C.ar    1  UNL1       -0.0003
     22 C         139.6879  142.4410  170.5071 C.ar    1  UNL1       -0.0000
     23 C         140.8028  143.1793  169.8275 C.ar    1  UNL1       -0.0003
     24 C         141.5522  142.5334  168.7000 C.ar    1  UNL1       -0.0042
@<TRIPOS>BOND
     1     1     2    2
     2     2     3   am
     3     3    16    1
     4    16    17    1
     5    17    18    1
     6    18    19    1
     7    19    20   ar
     8    20    21   ar
     9    21    22   ar
    10    22    23   ar
    11    23    24   ar
    12     2     4   am
    13     4     5    1
    14     5     6    1
    15     6     7    1
    16     7    11    1
    17    11    12   ar
    18    12    13   ar
    19    13    14   ar
    20    14    15   ar
    21     7     8    1
    22     8     9    1
    23    18    16    1
    24    24    19   ar
    25     9     4    1
    26    15    11   ar
    27     3    10    1
@<TRIPOS>MOLECULE
*****
 24 27 0 0 0
SMALL
GASTEIGER

@<TRIPOS>ATOM
      1 O         140.3018  138.4862  159.7762 O.2     1  UNL1       -0.2526
      2 C         141.5804  138.3104  160.5407 C.2     1  UNL1        0.3039
      3 N         142.8252  137.8700  159.8291 N.am    1  UNL1       -0.2901
      4 N         141.6140  138.5751  162.0168 N.am    1  UNL1       -0.2641
      5 C         140.3691  139.0156  162.7283 C.3     1  UNL1        0.0969
      6 C         140.4027  139.2802  164.2044 C.3     1  UNL1        0.0459
      7 C         141.6813  139.1044  164.9689 C.3     1  UNL1        0.1086
      8 C         142.9261  138.6640  164.2574 C.3     1  UNL1        0.0459
      9 C         142.8925  138.3993  162.7813 C.3     1  UNL1        0.0969
     10 H         143.6643  137.7546  160.3309 H       1  UNL1        0.1509
     11 N         141.7150  139.3691  166.4450 N.ar    1  UNL1       -0.2512
     12 C         140.6023  139.9577  167.2608 C.ar    1  UNL1        0.0966
     13 C         141.0669  140.0440  168.6845 C.ar    1  UNL1        0.0427
     14 C         142.4666  139.5087  168.7485 C.ar    1  UNL1        0.1217
     15 N         142.8672  139.0916  167.3645 N.ar    1  UNL1       -0.1677
     16 C         142.7915  137.6053  158.3530 C.3     1  UNL1        0.0774
     17 C         142.8318  138.1109  156.9414 C.3     1  UNL1        0.0259
     18 C         142.6930  136.6414  157.2081 C.3     1  UNL1        0.0420
     19 C         142.5558  135.2363  156.7010 C.ar    1  UNL1       -0.0208
     20 C         143.3549  134.1318  157.3267 C.ar    1  UNL1       -0.0042
     21 C         143.2178  132.7268  156.8196 C.ar    1  UNL1       -0.0003
     22 C         142.2816  132.4263  155.6868 C.ar    1  UNL1       -0.0000
     23 C         141.4825  133.5308  155.0611 C.ar    1  UNL1       -0.0003
     24 C         141.6196  134.9358  155.5682 C.ar    1  UNL1       -0.0042
@<TRIPOS>BOND
     1     1     2    2
     2     2     3   am
     3     3    16    1
     4    16    17    1
     5    17    18    1
     6    18    19    1
     7    19    20   ar
     8    20    21   ar
     9    21    22   ar
    10    22    23   ar
    11    23    24   ar
    12     2     4   am
    13     4     5    1
    14     5     6    1
    15     6     7    1
    16     7    11    1
    17    11    12   ar
    18    12    13   ar
    19    13    14   ar
    20    14    15   ar
    21     7     8    1
    22     8     9    1
    23    18    16    1
    24    24    19   ar
    25     9     4    1
    26    15    11   ar
    27     3    10    1
@<TRIPOS>MOLECULE
*****
 24 27 0 0 0
SMALL
GASTEIGER

@<TRIPOS>ATOM
      1 O         141.7933  137.9893  156.8183 O.2     1  UNL1       -0.2526
      2 C         142.5822  136.9532  157.5627 C.2     1  UNL1        0.3039
      3 N         143.0519  137.2290  158.9603 N.am    1  UNL1       -0.2901
      4 N         142.9015  135.6412  156.9094 N.am    1  UNL1       -0.2641
      5 C         142.4318  135.3654  155.5117 C.3     1  UNL1        0.0969
      6 C         142.7511  134.0534  154.8584 C.3     1  UNL1        0.0459
      7 C         143.5401  133.0173  155.6028 C.3     1  UNL1        0.1086
      8 C         144.0097  133.2931  157.0003 C.3     1  UNL1        0.0459
      9 C         143.6904  134.6051  157.6536 C.3     1  UNL1        0.0969
     10 H         143.5697  136.5490  159.4488 H       1  UNL1        0.1509
     11 N         143.8594  131.7053  154.9495 N.ar    1  UNL1       -0.2512
     12 C         144.7128  130.6164  155.5290 C.ar    1  UNL1        0.0966
     13 C         144.7622  129.4900  154.5396 C.ar    1  UNL1        0.0427
     14 C         143.9393  129.8828  153.3486 C.ar    1  UNL1        0.1217
     15 N         143.3813  131.2519  153.6019 N.ar    1  UNL1       -0.1677
     16 C         142.7326  138.5410  159.6136 C.3     1  UNL1        0.0774
     17 C         141.8710  139.7643  159.7182 C.3     1  UNL1        0.0259
     18 C         143.0411  139.5899  160.6404 C.3     1  UNL1        0.0420
     19 C         143.8949  140.0949  161.7657 C.ar    1  UNL1       -0.0208
     20 C         144.5039  141.4635  161.6892 C.ar    1  UNL1       -0.0042
     21 C         145.3577  141.9684  162.8145 C.ar    1  UNL1       -0.0003
     22 C         145.6023  141.1046  164.0162 C.ar    1  UNL1       -0.0000
     23 C         144.9933  139.7360  164.0926 C.ar    1  UNL1       -0.0003
     24 C         144.1396  139.2311  162.9674 C.ar    1  UNL1       -0.0042
@<TRIPOS>BOND
     1     1     2    2
     2     2     3   am
     3     3    16    1
     4    16    17    1
     5    17    18    1
     6    18    19    1
     7    19    20   ar
     8    20    21   ar
     9    21    22   ar
    10    22    23   ar
    11    23    24   ar
    12     2     4   am
    13     4     5    1
    14     5     6    1
    15     6     7    1
    16     7    11    1
    17    11    12   ar
    18    12    13   ar
    19    13    14   ar
    20    14    15   ar
    21     7     8    1
    22     8     9    1
    23    18    16    1
    24    24    19   ar
    25     9     4    1
    26    15    11   ar
    27     3    10    1
@<TRIPOS>MOLECULE
*****
 24 27 0 0 0
SMALL
GASTEIGER

@<TRIPOS>ATOM
      1 O         138.4221  139.5361  157.6815 O.2     1  UNL1       -0.2526
      2 C         138.3044  141.0049  157.9624 C.2     1  UNL1        0.3039
      3 N         137.2689  141.8240  157.2505 N.am    1  UNL1       -0.2901
      4 N         139.2223  141.6546  158.9550 N.am    1  UNL1       -0.2641
      5 C         140.2579  140.8354  159.6669 C.3     1  UNL1        0.0969
      6 C         141.1758  141.4850  160.6596 C.3     1  UNL1        0.0459
      7 C         141.0581  142.9539  160.9404 C.3     1  UNL1        0.1086
      8 C         140.0226  143.7730  160.2286 C.3     1  UNL1        0.0459
      9 C         139.1047  143.1233  159.2359 C.3     1  UNL1        0.0969
     10 H         137.1917  142.7880  157.4348 H       1  UNL1        0.1509
     11 N         141.9760  143.6035  161.9331 N.ar    1  UNL1       -0.2512
     12 C         141.6701  143.8629  163.3785 C.ar    1  UNL1        0.0966
     13 C         142.8660  144.5275  163.9934 C.ar    1  UNL1        0.0427
     14 C         143.9110  144.6789  162.9280 C.ar    1  UNL1        0.1217
     15 N         143.3609  144.1079  161.6547 N.ar    1  UNL1       -0.1677
     16 C         136.3510  141.1744  156.2578 C.3     1  UNL1        0.0774
     17 C         136.1134  140.5907  154.8967 C.3     1  UNL1        0.0259
     18 C         134.9988  140.6329  155.8996 C.3     1  UNL1        0.0420
     19 C         133.5746  140.3447  156.2719 C.ar    1  UNL1       -0.0208
     20 C         133.2644  139.2841  157.2862 C.ar    1  UNL1       -0.0042
     21 C         131.8402  138.9959  157.6584 C.ar    1  UNL1       -0.0003
     22 C         130.7262  139.7684  157.0163 C.ar    1  UNL1       -0.0000
     23 C         131.0364  140.8290  156.0021 C.ar    1  UNL1       -0.0003
     24 C         132.4605  141.1172  155.6299 C.ar    1  UNL1       -0.0042
@<TRIPOS>BOND
     1     1     2    2
     2     2     3   am
     3     3    16    1
     4    16    17    1
     5    17    18    1
     6    18    19    1
     7    19    20   ar
     8    20    21   ar
     9    21    22   ar
    10    22    23   ar
    11    23    24   ar
    12     2     4   am
    13     4     5    1
    14     5     6    1
    15     6     7    1
    16     7    11    1
    17    11    12   ar
    18    12    13   ar
    19    13    14   ar
    20    14    15   ar
    21     7     8    1
    22     8     9    1
    23    18    16    1
    24    24    19   ar
    25     9     4    1
    26    15    11   ar
    27     3    10    1
