@<TRIPOS>MOLECULE
*****
 26 29 0 0 0
SMALL
GASTEIGER

@<TRIPOS>ATOM
      1 C         138.5016  140.1028  165.8128 C.2     1  UNL1        0.1514
      2 N         139.5517  140.9635  166.4505 N.2     1  UNL1       -0.2531
      3 C         140.3549  140.4370  167.6027 C.3     1  UNL1        0.1051
      4 C         141.7317  139.8893  167.3691 C.3     1  UNL1        0.0244
      5 C         142.5350  139.3628  168.5213 C.3     1  UNL1        0.0020
      6 C         141.9614  139.3841  169.9072 C.3     1  UNL1        0.0001
      7 C         140.5847  139.9318  170.1408 C.3     1  UNL1        0.0020
      8 C         139.7814  140.4582  168.9886 C.3     1  UNL1        0.0244
      9 N         137.6984  140.6293  164.6606 N.pl3   1  UNL1       -0.3151
     10 H         136.8514  140.1939  164.4112 H       1  UNL1        0.1486
     11 C         138.1857  141.8193  163.8883 C.3     1  UNL1        0.0708
     12 C         139.1933  141.6404  162.7917 C.3     1  UNL1        0.0195
     13 C         139.6806  142.8304  162.0195 C.3     1  UNL1        0.0017
     14 C         139.1603  144.1994  162.3438 C.3     1  UNL1        0.0001
     15 C         138.1526  144.3783  163.4405 C.3     1  UNL1        0.0017
     16 C         137.6654  143.1882  164.2128 C.3     1  UNL1        0.0195
     17 S         138.2548  138.7156  166.3274 S.3     1  UNL1       -0.0744
     18 C         138.6618  137.5278  165.5068 C.3     1  UNL1        0.1066
     19 C         141.1712  137.5962  164.5886 C.2     1  UNL1        0.0494
     20 C         139.6832  137.6821  164.4192 C.2     1  UNL1        0.0484
     21 N         139.3961  137.9493  162.9714 N.pl3   1  UNL1       -0.2678
     22 C         138.2990  138.1675  161.9720 C.3     1  UNL1        0.1234
     23 C         138.9315  138.3817  160.6288 C.3     1  UNL1        0.1492
     24 N         140.4195  138.2959  160.7981 N.2     1  UNL1       -0.2486
     25 C         140.7066  138.0286  162.2459 C.2     1  UNL1        0.1623
     26 S         141.8037  137.8104  163.2453 S.3     1  UNL1       -0.0516
@<TRIPOS>BOND
     1    19    20    2
     2    20    18    1
     3    18    17    1
     4    17     1    1
     5     1     2    2
     6     2     3    1
     7     3     4    1
     8     4     5    1
     9     5     6    1
    10     6     7    1
    11     7     8    1
    12     1     9    1
    13     9    11    1
    14    11    12    1
    15    12    13    1
    16    13    14    1
    17    14    15    1
    18    15    16    1
    19    20    21    1
    20    21    22    1
    21    22    23    1
    22    23    24    1
    23    24    25    2
    24    25    26    1
    25    26    19    1
    26     8     3    1
    27    16    11    1
    28    25    21    1
    29     9    10    1
@<TRIPOS>MOLECULE
*****
 26 29 0 0 0
SMALL
GASTEIGER

@<TRIPOS>ATOM
      1 C         138.5717  140.2212  165.5581 C.2     1  UNL1        0.1514
      2 N         139.6269  141.0506  166.2279 N.2     1  UNL1       -0.2531
      3 C         140.5077  140.4393  167.2770 C.3     1  UNL1        0.1051
      4 C         140.0660  140.4222  168.7103 C.3     1  UNL1        0.0244
      5 C         140.9467  139.8109  169.7594 C.3     1  UNL1        0.0020
      6 C         142.2693  139.2166  169.3750 C.3     1  UNL1        0.0001
      7 C         142.7110  139.2337  167.9416 C.3     1  UNL1        0.0020
      8 C         141.8302  139.8450  166.8926 C.3     1  UNL1        0.0244
      9 N         137.6909  140.8325  164.5090 N.pl3   1  UNL1       -0.3151
     10 H         136.7796  140.4873  164.3691 H       1  UNL1        0.1486
     11 C         138.1986  141.9698  163.6732 C.3     1  UNL1        0.0708
     12 C         137.7073  143.3643  163.9263 C.3     1  UNL1        0.0195
     13 C         138.2151  144.5016  163.0904 C.3     1  UNL1        0.0017
     14 C         139.2141  144.2445  162.0014 C.3     1  UNL1        0.0001
     15 C         139.7054  142.8500  161.7484 C.3     1  UNL1        0.0017
     16 C         139.1977  141.7127  162.5843 C.3     1  UNL1        0.0195
     17 S         138.3974  138.7804  165.9373 S.3     1  UNL1       -0.0744
     18 C         139.1634  137.7154  165.2099 C.3     1  UNL1        0.1066
     19 C         138.4924  137.9367  162.6320 C.2     1  UNL1        0.0494
     20 C         139.4857  137.8848  163.7548 C.2     1  UNL1        0.0484
     21 N         140.8579  138.0320  163.1670 N.pl3   1  UNL1       -0.2678
     22 C         142.3198  138.0909  163.4977 C.3     1  UNL1        0.1234
     23 C         143.0780  138.2702  162.2160 C.3     1  UNL1        0.1492
     24 N         142.0848  138.3221  161.0931 N.2     1  UNL1       -0.2486
     25 C         140.7126  138.1749  161.6809 C.2     1  UNL1        0.1623
     26 S         139.2507  138.1160  161.3502 S.3     1  UNL1       -0.0516
@<TRIPOS>BOND
     1    19    20    2
     2    20    18    1
     3    18    17    1
     4    17     1    1
     5     1     2    2
     6     2     3    1
     7     3     4    1
     8     4     5    1
     9     5     6    1
    10     6     7    1
    11     7     8    1
    12     1     9    1
    13     9    11    1
    14    11    12    1
    15    12    13    1
    16    13    14    1
    17    14    15    1
    18    15    16    1
    19    20    21    1
    20    21    22    1
    21    22    23    1
    22    23    24    1
    23    24    25    2
    24    25    26    1
    25    26    19    1
    26     8     3    1
    27    16    11    1
    28    25    21    1
    29     9    10    1
@<TRIPOS>MOLECULE
*****
 26 29 0 0 0
SMALL
GASTEIGER

@<TRIPOS>ATOM
      1 C         139.8989  139.8032  166.9961 C.2     1  UNL1        0.1514
      2 N         138.6153  139.3102  166.3967 N.2     1  UNL1       -0.2531
      3 C         138.4820  139.1858  164.9078 C.3     1  UNL1        0.1051
      4 C         138.8618  137.9053  164.2252 C.3     1  UNL1        0.0244
      5 C         138.7284  137.7809  162.7363 C.3     1  UNL1        0.0020
      6 C         138.2152  138.9371  161.9301 C.3     1  UNL1        0.0001
      7 C         137.8353  140.2175  162.6127 C.3     1  UNL1        0.0020
      8 C         137.9687  140.3419  164.1016 C.3     1  UNL1        0.0244
      9 N         140.0323  139.9275  168.4850 N.pl3   1  UNL1       -0.3151
     10 H         139.5003  139.3482  169.0771 H       1  UNL1        0.1486
     11 C         140.9764  140.9346  169.0718 C.3     1  UNL1        0.0708
     12 C         142.3857  140.5395  169.3999 C.3     1  UNL1        0.0195
     13 C         143.3297  141.5467  169.9868 C.3     1  UNL1        0.0017
     14 C         142.8645  142.9491  170.2456 C.3     1  UNL1        0.0001
     15 C         141.4551  143.3442  169.9174 C.3     1  UNL1        0.0017
     16 C         140.5111  142.3370  169.3306 C.3     1  UNL1        0.0195
     17 S         141.0493  140.1718  166.1067 S.3     1  UNL1       -0.0744
     18 C         142.0731  139.1394  165.7380 C.3     1  UNL1        0.1066
     19 C         142.7877  138.3228  163.2952 C.2     1  UNL1        0.0494
     20 C         142.8424  139.2701  164.4570 C.2     1  UNL1        0.0484
     21 N         143.8014  140.3710  164.1128 N.pl3   1  UNL1       -0.2678
     22 C         144.4278  141.6367  164.6182 C.3     1  UNL1        0.1234
     23 C         145.3530  142.1522  163.5560 C.3     1  UNL1        0.1492
     24 N         145.2984  141.2050  162.3941 N.2     1  UNL1       -0.2486
     25 C         144.3394  140.1041  162.7383 C.2     1  UNL1        0.1623
     26 S         143.7130  138.8383  162.2329 S.3     1  UNL1       -0.0516
@<TRIPOS>BOND
     1    19    20    2
     2    20    18    1
     3    18    17    1
     4    17     1    1
     5     1     2    2
     6     2     3    1
     7     3     4    1
     8     4     5    1
     9     5     6    1
    10     6     7    1
    11     7     8    1
    12     1     9    1
    13     9    11    1
    14    11    12    1
    15    12    13    1
    16    13    14    1
    17    14    15    1
    18    15    16    1
    19    20    21    1
    20    21    22    1
    21    22    23    1
    22    23    24    1
    23    24    25    2
    24    25    26    1
    25    26    19    1
    26     8     3    1
    27    16    11    1
    28    25    21    1
    29     9    10    1
@<TRIPOS>MOLECULE
*****
 26 29 0 0 0
SMALL
GASTEIGER

@<TRIPOS>ATOM
      1 C         140.9916  140.1801  165.6183 C.2     1  UNL1        0.1514
      2 N         139.6827  139.4655  165.4566 N.2     1  UNL1       -0.2531
      3 C         139.0190  139.4111  164.1125 C.3     1  UNL1        0.1051
      4 C         139.1570  138.1868  163.2569 C.3     1  UNL1        0.0244
      5 C         138.4933  138.1323  161.9128 C.3     1  UNL1        0.0020
      6 C         137.6916  139.3023  161.4243 C.3     1  UNL1        0.0001
      7 C         137.5536  140.5266  162.2799 C.3     1  UNL1        0.0020
      8 C         138.2173  140.5810  163.6240 C.3     1  UNL1        0.0244
      9 N         141.6553  140.2345  166.9624 N.pl3   1  UNL1       -0.3151
     10 H         142.5099  139.7680  167.1087 H       1  UNL1        0.1486
     11 C         141.0171  140.9997  168.0836 C.3     1  UNL1        0.0708
     12 C         140.0134  140.3286  168.9736 C.3     1  UNL1        0.0195
     13 C         139.3751  141.0939  170.0948 C.3     1  UNL1        0.0017
     14 C         139.7405  142.5302  170.3259 C.3     1  UNL1        0.0001
     15 C         140.7442  143.2013  169.4358 C.3     1  UNL1        0.0017
     16 C         141.3825  142.4360  168.3146 C.3     1  UNL1        0.0195
     17 S         141.6368  140.8403  164.4360 S.3     1  UNL1       -0.0744
     18 C         141.9112  142.3149  164.4575 C.3     1  UNL1        0.1066
     19 C         139.6930  143.6033  165.2088 C.2     1  UNL1        0.0494
     20 C         140.7922  143.2892  164.2376 C.2     1  UNL1        0.0484
     21 N         140.5759  144.1205  163.0079 N.pl3   1  UNL1       -0.2678
     22 C         141.1215  144.4401  161.6477 C.3     1  UNL1        0.1234
     23 C         140.2259  145.4656  161.0182 C.3     1  UNL1        0.1492
     24 N         139.1267  145.7797  161.9894 N.2     1  UNL1       -0.2486
     25 C         139.3430  144.9484  163.2191 C.2     1  UNL1        0.1623
     26 S         138.7973  144.6288  164.5792 S.3     1  UNL1       -0.0516
@<TRIPOS>BOND
     1    19    20    2
     2    20    18    1
     3    18    17    1
     4    17     1    1
     5     1     2    2
     6     2     3    1
     7     3     4    1
     8     4     5    1
     9     5     6    1
    10     6     7    1
    11     7     8    1
    12     1     9    1
    13     9    11    1
    14    11    12    1
    15    12    13    1
    16    13    14    1
    17    14    15    1
    18    15    16    1
    19    20    21    1
    20    21    22    1
    21    22    23    1
    22    23    24    1
    23    24    25    2
    24    25    26    1
    25    26    19    1
    26     8     3    1
    27    16    11    1
    28    25    21    1
    29     9    10    1
@<TRIPOS>MOLECULE
*****
 26 29 0 0 0
SMALL
GASTEIGER

@<TRIPOS>ATOM
      1 C         139.4725  140.5658  166.6251 C.2     1  UNL1        0.1514
      2 N         139.6793  140.4338  168.1049 N.2     1  UNL1       -0.2531
      3 C         140.7567  141.2253  168.7852 C.3     1  UNL1        0.1051
      4 C         142.1399  140.6581  168.9084 C.3     1  UNL1        0.0244
      5 C         143.2173  141.4495  169.5886 C.3     1  UNL1        0.0020
      6 C         142.9115  142.8083  170.1458 C.3     1  UNL1        0.0001
      7 C         141.5284  143.3755  170.0226 C.3     1  UNL1        0.0020
      8 C         140.4510  142.5840  169.3423 C.3     1  UNL1        0.0244
      9 N         138.3951  139.7744  165.9448 N.pl3   1  UNL1       -0.3151
     10 H         137.5491  139.5902  166.4135 H       1  UNL1        0.1486
     11 C         138.6066  139.2635  164.5505 C.3     1  UNL1        0.0708
     12 C         137.9735  139.9702  163.3887 C.3     1  UNL1        0.0195
     13 C         138.1851  139.4593  161.9944 C.3     1  UNL1        0.0017
     14 C         139.0299  138.2418  161.7618 C.3     1  UNL1        0.0001
     15 C         139.6630  137.5351  162.9236 C.3     1  UNL1        0.0017
     16 C         139.4514  138.0460  164.3180 C.3     1  UNL1        0.0195
     17 S         140.3431  141.4894  165.8255 S.3     1  UNL1       -0.0744
     18 C         139.9751  142.9372  165.6900 C.3     1  UNL1        0.1066
     19 C         139.7475  144.7133  163.7055 C.2     1  UNL1        0.0494
     20 C         140.5218  143.7466  164.5516 C.2     1  UNL1        0.0484
     21 N         141.9387  143.7314  164.0596 N.pl3   1  UNL1       -0.2678
     22 C         143.2929  143.1245  164.2784 C.3     1  UNL1        0.1234
     23 C         144.2313  143.7068  163.2634 C.3     1  UNL1        0.1492
     24 N         143.4571  144.6736  162.4172 N.2     1  UNL1       -0.2486
     25 C         142.0402  144.6888  162.9093 C.2     1  UNL1        0.1623
     26 S         140.6860  145.2956  162.6904 S.3     1  UNL1       -0.0516
@<TRIPOS>BOND
     1    19    20    2
     2    20    18    1
     3    18    17    1
     4    17     1    1
     5     1     2    2
     6     2     3    1
     7     3     4    1
     8     4     5    1
     9     5     6    1
    10     6     7    1
    11     7     8    1
    12     1     9    1
    13     9    11    1
    14    11    12    1
    15    12    13    1
    16    13    14    1
    17    14    15    1
    18    15    16    1
    19    20    21    1
    20    21    22    1
    21    22    23    1
    22    23    24    1
    23    24    25    2
    24    25    26    1
    25    26    19    1
    26     8     3    1
    27    16    11    1
    28    25    21    1
    29     9    10    1
@<TRIPOS>MOLECULE
*****
 26 29 0 0 0
SMALL
GASTEIGER

@<TRIPOS>ATOM
      1 C         139.4744  140.3718  166.7194 C.2     1  UNL1        0.1514
      2 N         140.0079  141.5551  165.9677 N.2     1  UNL1       -0.2531
      3 C         139.4475  141.9027  164.6205 C.3     1  UNL1        0.1051
      4 C         140.2269  141.5843  163.3790 C.3     1  UNL1        0.0244
      5 C         139.6665  141.9320  162.0318 C.3     1  UNL1        0.0020
      6 C         138.3266  142.5980  161.9260 C.3     1  UNL1        0.0001
      7 C         137.5472  142.9164  163.1674 C.3     1  UNL1        0.0020
      8 C         138.1076  142.5687  164.5147 C.3     1  UNL1        0.0244
      9 N         140.0348  140.0241  168.0667 N.pl3   1  UNL1       -0.3151
     10 H         139.8068  139.1639  168.4876 H       1  UNL1        0.1486
     11 C         140.9427  140.9872  168.7724 C.3     1  UNL1        0.0708
     12 C         140.4008  142.2863  169.2908 C.3     1  UNL1        0.0195
     13 C         141.3088  143.2493  169.9966 C.3     1  UNL1        0.0017
     14 C         142.7586  142.9133  170.1841 C.3     1  UNL1        0.0001
     15 C         143.3005  141.6141  169.6657 C.3     1  UNL1        0.0017
     16 C         142.3925  140.6511  168.9599 C.3     1  UNL1        0.0195
     17 S         138.3803  139.5360  166.1238 S.3     1  UNL1       -0.0744
     18 C         138.6849  138.1634  165.6012 C.3     1  UNL1        0.1066
     19 C         140.9564  137.5292  164.3429 C.2     1  UNL1        0.0494
     20 C         139.5322  137.9991  164.3743 C.2     1  UNL1        0.0484
     21 N         139.1040  138.2757  162.9636 N.pl3   1  UNL1       -0.2678
     22 C         137.9592  138.7370  162.1112 C.3     1  UNL1        0.1234
     23 C         138.4113  138.7233  160.6810 C.3     1  UNL1        0.1492
     24 N         139.8355  138.2534  160.6495 N.2     1  UNL1       -0.2486
     25 C         140.2636  137.9768  162.0603 C.2     1  UNL1        0.1623
     26 S         141.4084  137.5155  162.9126 S.3     1  UNL1       -0.0516
@<TRIPOS>BOND
     1    19    20    2
     2    20    18    1
     3    18    17    1
     4    17     1    1
     5     1     2    2
     6     2     3    1
     7     3     4    1
     8     4     5    1
     9     5     6    1
    10     6     7    1
    11     7     8    1
    12     1     9    1
    13     9    11    1
    14    11    12    1
    15    12    13    1
    16    13    14    1
    17    14    15    1
    18    15    16    1
    19    20    21    1
    20    21    22    1
    21    22    23    1
    22    23    24    1
    23    24    25    2
    24    25    26    1
    25    26    19    1
    26     8     3    1
    27    16    11    1
    28    25    21    1
    29     9    10    1
@<TRIPOS>MOLECULE
*****
 26 29 0 0 0
SMALL
GASTEIGER

@<TRIPOS>ATOM
      1 C         141.1155  139.5738  166.2379 C.2     1  UNL1        0.1514
      2 N         139.6801  139.1752  166.0625 N.2     1  UNL1       -0.2531
      3 C         139.0728  139.1431  164.6913 C.3     1  UNL1        0.1051
      4 C         138.3514  140.3470  164.1621 C.3     1  UNL1        0.0244
      5 C         137.7441  140.3149  162.7909 C.3     1  UNL1        0.0020
      6 C         137.8582  139.0787  161.9489 C.3     1  UNL1        0.0001
      7 C         138.5797  137.8748  162.4781 C.3     1  UNL1        0.0020
      8 C         139.1870  137.9070  163.8493 C.3     1  UNL1        0.0244
      9 N         141.7228  139.6060  167.6091 N.pl3   1  UNL1       -0.3151
     10 H         142.1362  138.7947  167.9835 H       1  UNL1        0.1486
     11 C         141.7002  140.8742  168.4097 C.3     1  UNL1        0.0708
     12 C         142.9430  141.3438  169.1061 C.3     1  UNL1        0.0195
     13 C         142.9203  142.6120  169.9067 C.3     1  UNL1        0.0017
     14 C         141.6549  143.4107  170.0110 C.3     1  UNL1        0.0001
     15 C         140.4121  142.9411  169.3146 C.3     1  UNL1        0.0017
     16 C         140.4348  141.6728  168.5139 C.3     1  UNL1        0.0195
     17 S         141.9437  139.9403  165.0420 S.3     1  UNL1       -0.0744
     18 C         142.2911  141.3761  164.7817 C.3     1  UNL1        0.1066
     19 C         141.4455  142.2181  162.3899 C.2     1  UNL1        0.0494
     20 C         141.4189  142.2088  163.8896 C.2     1  UNL1        0.0484
     21 N         140.3671  143.1785  164.3407 N.pl3   1  UNL1       -0.2678
     22 C         139.7006  143.7720  165.5463 C.3     1  UNL1        0.1234
     23 C         138.6652  144.7473  165.0704 C.3     1  UNL1        0.1492
     24 N         138.6917  144.7567  163.5707 N.2     1  UNL1       -0.2486
     25 C         139.7435  143.7871  163.1196 C.2     1  UNL1        0.1623
     26 S         140.4100  143.1936  161.9140 S.3     1  UNL1       -0.0516
@<TRIPOS>BOND
     1    19    20    2
     2    20    18    1
     3    18    17    1
     4    17     1    1
     5     1     2    2
     6     2     3    1
     7     3     4    1
     8     4     5    1
     9     5     6    1
    10     6     7    1
    11     7     8    1
    12     1     9    1
    13     9    11    1
    14    11    12    1
    15    12    13    1
    16    13    14    1
    17    14    15    1
    18    15    16    1
    19    20    21    1
    20    21    22    1
    21    22    23    1
    22    23    24    1
    23    24    25    2
    24    25    26    1
    25    26    19    1
    26     8     3    1
    27    16    11    1
    28    25    21    1
    29     9    10    1
@<TRIPOS>MOLECULE
*****
 26 29 0 0 0
SMALL
GASTEIGER

@<TRIPOS>ATOM
      1 C         140.6233  139.6708  166.2146 C.2     1  UNL1        0.1514
      2 N         141.5015  140.1844  167.3168 N.2     1  UNL1       -0.2531
      3 C         140.9278  141.0726  168.3807 C.3     1  UNL1        0.1051
      4 C         140.2473  140.4702  169.5741 C.3     1  UNL1        0.0244
      5 C         139.6736  141.3583  170.6381 C.3     1  UNL1        0.0020
      6 C         139.7804  142.8490  170.5087 C.3     1  UNL1        0.0001
      7 C         140.4609  143.4513  169.3153 C.3     1  UNL1        0.0020
      8 C         141.0346  142.5632  168.2514 C.3     1  UNL1        0.0244
      9 N         141.1970  138.7826  165.1506 N.pl3   1  UNL1       -0.3151
     10 H         140.8508  137.8685  165.0331 H       1  UNL1        0.1486
     11 C         142.2980  139.2872  164.2658 C.3     1  UNL1        0.0708
     12 C         143.7276  139.1633  164.7027 C.3     1  UNL1        0.0195
     13 C         144.8287  139.6680  163.8179 C.3     1  UNL1        0.0017
     14 C         144.5002  140.2965  162.4961 C.3     1  UNL1        0.0001
     15 C         143.0705  140.4203  162.0592 C.3     1  UNL1        0.0017
     16 C         141.9695  139.9157  162.9441 C.3     1  UNL1        0.0195
     17 S         139.1712  140.0453  166.1764 S.3     1  UNL1       -0.0744
     18 C         138.2662  139.4355  165.1472 C.3     1  UNL1        0.1066
     19 C         138.1701  139.3316  162.4780 C.2     1  UNL1        0.0494
     20 C         138.1468  140.0604  163.7888 C.2     1  UNL1        0.0484
     21 N         137.9832  141.5238  163.5028 N.pl3   1  UNL1       -0.2678
     22 C         137.8677  142.8786  164.1362 C.3     1  UNL1        0.1234
     23 C         137.7185  143.8915  163.0400 C.3     1  UNL1        0.1492
     24 N         137.7418  143.1627  161.7291 N.2     1  UNL1       -0.2486
     25 C         137.9054  141.6994  162.0151 C.2     1  UNL1        0.1623
     26 S         138.0209  140.3446  161.3817 S.3     1  UNL1       -0.0516
@<TRIPOS>BOND
     1    19    20    2
     2    20    18    1
     3    18    17    1
     4    17     1    1
     5     1     2    2
     6     2     3    1
     7     3     4    1
     8     4     5    1
     9     5     6    1
    10     6     7    1
    11     7     8    1
    12     1     9    1
    13     9    11    1
    14    11    12    1
    15    12    13    1
    16    13    14    1
    17    14    15    1
    18    15    16    1
    19    20    21    1
    20    21    22    1
    21    22    23    1
    22    23    24    1
    23    24    25    2
    24    25    26    1
    25    26    19    1
    26     8     3    1
    27    16    11    1
    28    25    21    1
    29     9    10    1
@<TRIPOS>MOLECULE
*****
 26 29 0 0 0
SMALL
GASTEIGER

@<TRIPOS>ATOM
      1 C         142.0491  142.2822  165.7976 C.2     1  UNL1        0.1514
      2 N         140.9143  143.2269  166.0620 N.2     1  UNL1       -0.2531
      3 C         139.8549  143.4365  165.0209 C.3     1  UNL1        0.1051
      4 C         138.7060  142.4779  164.9164 C.3     1  UNL1        0.0244
      5 C         137.6465  142.6874  163.8754 C.3     1  UNL1        0.0020
      6 C         137.7361  143.8558  162.9388 C.3     1  UNL1        0.0001
      7 C         138.8850  144.8144  163.0434 C.3     1  UNL1        0.0020
      8 C         139.9444  144.6048  164.0844 C.3     1  UNL1        0.0244
      9 N         143.1085  142.0725  166.8386 N.pl3   1  UNL1       -0.3151
     10 H         144.0514  142.2595  166.6260 H       1  UNL1        0.1486
     11 C         142.7312  141.5781  168.2036 C.3     1  UNL1        0.0708
     12 C         142.3864  142.5566  169.2869 C.3     1  UNL1        0.0195
     13 C         142.0091  142.0621  170.6519 C.3     1  UNL1        0.0017
     14 C         141.9765  140.5892  170.9336 C.3     1  UNL1        0.0001
     15 C         142.3213  139.6107  169.8501 C.3     1  UNL1        0.0017
     16 C         142.6986  140.1052  168.4852 C.3     1  UNL1        0.0195
     17 S         142.1245  141.5471  164.4922 S.3     1  UNL1       -0.0744
     18 C         142.1334  140.0473  164.4754 C.3     1  UNL1        0.1066
     19 C         140.3017  138.4416  163.3747 C.2     1  UNL1        0.0494
     20 C         140.8391  139.2893  164.4895 C.2     1  UNL1        0.0484
     21 N         139.8549  139.2461  165.6206 N.pl3   1  UNL1       -0.2678
     22 C         139.5788  139.7433  167.0086 C.3     1  UNL1        0.1234
     23 C         138.2625  139.1761  167.4508 C.3     1  UNL1        0.1492
     24 N         137.7251  138.3283  166.3362 N.2     1  UNL1       -0.2486
     25 C         138.7093  138.3716  165.2050 C.2     1  UNL1        0.1623
     26 S         138.9853  137.8744  163.8170 S.3     1  UNL1       -0.0516
@<TRIPOS>BOND
     1    19    20    2
     2    20    18    1
     3    18    17    1
     4    17     1    1
     5     1     2    2
     6     2     3    1
     7     3     4    1
     8     4     5    1
     9     5     6    1
    10     6     7    1
    11     7     8    1
    12     1     9    1
    13     9    11    1
    14    11    12    1
    15    12    13    1
    16    13    14    1
    17    14    15    1
    18    15    16    1
    19    20    21    1
    20    21    22    1
    21    22    23    1
    22    23    24    1
    23    24    25    2
    24    25    26    1
    25    26    19    1
    26     8     3    1
    27    16    11    1
    28    25    21    1
    29     9    10    1
