@<TRIPOS>MOLECULE
*****
 40 44 0 0 0
SMALL
GASTEIGER

@<TRIPOS>ATOM
      1 N         143.0757  137.2396  160.0625 N.am    1  UNL1       -0.3018
      2 C         142.6066  137.9850  158.8483 C.2     1  UNL1        0.2425
      3 O         141.9865  139.3430  158.9950 O.2     1  UNL1       -0.2733
      4 H         143.4827  136.3483  159.9662 H       1  UNL1        0.1495
      5 N         142.7112  138.7184  163.3480 N.3     1  UNL1       -0.2711
      6 C         143.7932  138.6953  162.3093 C.3     1  UNL1        0.0933
      7 C         142.9247  137.8521  161.4234 C.3     1  UNL1        0.1035
      8 C         141.8428  137.8752  162.4620 C.3     1  UNL1        0.0933
      9 C         142.2583  140.5562  167.4305 C.3     1  UNL1        0.0237
     10 C         142.8924  139.2048  167.2825 C.3     1  UNL1        0.0058
     11 C         143.0434  138.5923  165.9216 C.3     1  UNL1        0.0163
     12 C         142.5603  139.3310  164.7088 C.3     1  UNL1        0.0576
     13 C         141.9262  140.6823  164.8568 C.3     1  UNL1        0.0163
     14 C         141.7752  141.2949  166.2177 C.3     1  UNL1        0.0058
     15 N         139.9471  139.7781  169.1778 N.pl3   1  UNL1       -0.3560
     16 C         140.9517  140.7797  169.6650 C.ar    1  UNL1        0.0569
     17 C         140.8008  141.3923  171.0259 C.ar    1  UNL1        0.1126
     18 N         141.8055  142.3939  171.5131 N.ar    1  UNL1       -0.2411
     19 C         142.9611  142.7829  170.6395 C.ar    1  UNL1        0.0987
     20 C         143.1120  142.1704  169.2787 C.ar    1  UNL1        0.0176
     21 C         142.1074  141.1687  168.7914 C.ar    1  UNL1       -0.0065
     22 H         139.1886  139.5228  169.7512 H       1  UNL1        0.1424
     23 H         140.0461  139.3761  168.2846 H       1  UNL1        0.1424
     24 C         142.7576  137.3725  157.4874 C.3     1  UNL1        0.1747
     25 N         142.9132  135.8872  157.3464 N.pl3   1  UNL1       -0.3106
     26 H         143.1907  135.3457  158.1204 H       1  UNL1        0.1486
     27 C         142.6459  135.2271  156.0263 C.ar    1  UNL1        0.1320
     28 N         141.9584  135.9890  154.9323 N.ar    1  UNL1       -0.2092
     29 C         141.6912  135.3288  153.6122 C.ar    1  UNL1        0.2000
     30 N         142.1114  133.9067  153.3861 N.ar    1  UNL1       -0.2239
     31 C         142.7988  133.1448  154.4801 C.ar    1  UNL1        0.0857
     32 C         143.2191  131.7228  154.2539 C.ar    1  UNL1        0.0192
     33 C         143.9065  130.9609  155.3479 C.ar    1  UNL1        0.0054
     34 C         144.1738  131.6210  156.6681 C.ar    1  UNL1        0.0716
     35 C         143.7536  133.0431  156.8942 C.ar    1  UNL1        0.0081
     36 C         143.0661  133.8050  155.8001 C.ar    1  UNL1        0.0491
     37 C         144.8613  130.8591  157.7621 C.3     1  UNL1        0.4186
     38 F         145.5488  130.0971  158.8561 F       1  UNL1       -0.1659
     39 F         145.7383  132.0446  158.0366 F       1  UNL1       -0.1659
     40 F         143.9842  129.6736  157.4876 F       1  UNL1       -0.1659
@<TRIPOS>BOND
     1    15    16    1
     2    16    17   ar
     3    17    18   ar
     4    18    19   ar
     5    19    20   ar
     6    20    21   ar
     7     9    21    1
     8     9    10    1
     9    10    11    1
    10    11    12    1
    11    12     5    1
    12     5     6    1
    13     6     7    1
    14     7     1    1
    15     1     2   am
    16     2     3    2
    17     2    24    1
    18    24    25    1
    19    25    27    1
    20    27    28   ar
    21    28    29   ar
    22    29    30   ar
    23    30    31   ar
    24    31    32   ar
    25    32    33   ar
    26    33    34   ar
    27    34    37    1
    28    37    38    1
    29    37    39    1
    30    37    40    1
    31    34    35   ar
    32    35    36   ar
    33     7     8    1
    34    12    13    1
    35    13    14    1
    36    21    16   ar
    37    14     9    1
    38     8     5    1
    39    36    27   ar
    40    36    31   ar
    41    15    22    1
    42    15    23    1
    43     1     4    1
    44    25    26    1
@<TRIPOS>MOLECULE
*****
 40 44 0 0 0
SMALL
GASTEIGER

@<TRIPOS>ATOM
      1 N         143.6994  139.1235  159.6608 N.am    1  UNL1       -0.3018
      2 C         142.6179  138.8457  158.6593 C.2     1  UNL1        0.2425
      3 O         141.1773  138.9202  159.0709 O.2     1  UNL1       -0.2733
      4 H         144.6448  139.0746  159.3907 H       1  UNL1        0.1495
      5 N         142.8326  139.9744  163.0725 N.3     1  UNL1       -0.2711
      6 C         142.7197  140.6650  161.7457 C.3     1  UNL1        0.0933
      7 C         143.3404  139.4760  161.0740 C.3     1  UNL1        0.1035
      8 C         143.4533  138.7854  162.4007 C.3     1  UNL1        0.0933
      9 C         141.7555  141.0317  167.3118 C.3     1  UNL1        0.0237
     10 C         142.9102  141.7130  166.6391 C.3     1  UNL1        0.0058
     11 C         143.2693  141.3606  165.2260 C.3     1  UNL1        0.0163
     12 C         142.4736  140.3268  164.4855 C.3     1  UNL1        0.0576
     13 C         141.3189  139.6455  165.1582 C.3     1  UNL1        0.0163
     14 C         140.9599  139.9979  166.5713 C.3     1  UNL1        0.0058
     15 N         142.8983  139.4484  169.5893 N.pl3   1  UNL1       -0.3560
     16 C         141.9679  140.5925  169.8636 C.ar    1  UNL1        0.0569
     17 C         141.6088  140.9450  171.2768 C.ar    1  UNL1        0.1126
     18 N         140.6784  142.0890  171.5511 N.ar    1  UNL1       -0.2411
     19 C         140.1070  142.8807  170.4123 C.ar    1  UNL1        0.0987
     20 C         140.4660  142.5283  168.9993 C.ar    1  UNL1        0.0176
     21 C         141.3965  141.3841  168.7249 C.ar    1  UNL1       -0.0065
     22 H         143.2734  138.9288  170.3367 H       1  UNL1        0.1424
     23 H         143.1340  139.2170  168.6618 H       1  UNL1        0.1424
     24 C         142.9768  138.4933  157.2462 C.3     1  UNL1        0.1747
     25 N         143.4236  137.1012  156.9107 N.pl3   1  UNL1       -0.3106
     26 H         144.0648  136.6358  157.4951 H       1  UNL1        0.1486
     27 C         142.8935  136.4183  155.6849 C.ar    1  UNL1        0.1320
     28 N         142.1260  137.2025  154.6621 N.ar    1  UNL1       -0.2092
     29 C         141.5959  136.5196  153.4364 C.ar    1  UNL1        0.2000
     30 N         141.8332  135.0525  153.2333 N.ar    1  UNL1       -0.2239
     31 C         142.6007  134.2683  154.2560 C.ar    1  UNL1        0.0857
     32 C         142.8380  132.8012  154.0530 C.ar    1  UNL1        0.0192
     33 C         143.6054  132.0169  155.0757 C.ar    1  UNL1        0.0054
     34 C         144.1356  132.6998  156.3016 C.ar    1  UNL1        0.0716
     35 C         143.8983  134.1670  156.5046 C.ar    1  UNL1        0.0081
     36 C         143.1308  134.9512  155.4818 C.ar    1  UNL1        0.0491
     37 C         144.9030  131.9156  157.3243 C.3     1  UNL1        0.4186
     38 F         145.6705  131.1313  158.3470 F       1  UNL1       -0.1659
     39 F         144.6398  132.9855  158.3421 F       1  UNL1       -0.1659
     40 F         145.1662  130.8458  156.3064 F       1  UNL1       -0.1659
@<TRIPOS>BOND
     1    15    16    1
     2    16    17   ar
     3    17    18   ar
     4    18    19   ar
     5    19    20   ar
     6    20    21   ar
     7     9    21    1
     8     9    10    1
     9    10    11    1
    10    11    12    1
    11    12     5    1
    12     5     6    1
    13     6     7    1
    14     7     1    1
    15     1     2   am
    16     2     3    2
    17     2    24    1
    18    24    25    1
    19    25    27    1
    20    27    28   ar
    21    28    29   ar
    22    29    30   ar
    23    30    31   ar
    24    31    32   ar
    25    32    33   ar
    26    33    34   ar
    27    34    37    1
    28    37    38    1
    29    37    39    1
    30    37    40    1
    31    34    35   ar
    32    35    36   ar
    33     7     8    1
    34    12    13    1
    35    13    14    1
    36    21    16   ar
    37    14     9    1
    38     8     5    1
    39    36    27   ar
    40    36    31   ar
    41    15    22    1
    42    15    23    1
    43     1     4    1
    44    25    26    1
@<TRIPOS>MOLECULE
*****
 40 44 0 0 0
SMALL
GASTEIGER

@<TRIPOS>ATOM
      1 N         140.3954  140.3534  160.7742 N.am    1  UNL1       -0.3018
      2 C         139.1289  139.8311  160.1632 C.2     1  UNL1        0.2425
      3 O         139.0475  139.6072  158.6822 O.2     1  UNL1       -0.2733
      4 H         140.4488  140.5004  161.7462 H       1  UNL1        0.1495
      5 N         143.2562  141.0736  158.6740 N.3     1  UNL1       -0.2711
      6 C         142.9985  140.1672  159.8410 C.3     1  UNL1        0.0933
      7 C         141.5804  140.6518  159.9042 C.3     1  UNL1        0.1035
      8 C         141.8380  141.5581  158.7373 C.3     1  UNL1        0.0933
      9 C         146.8112  141.9686  156.0642 C.3     1  UNL1        0.0237
     10 C         145.8592  140.8731  155.6850 C.3     1  UNL1        0.0058
     11 C         144.6742  140.5748  156.5549 C.3     1  UNL1        0.0163
     12 C         144.4412  141.3719  157.8040 C.3     1  UNL1        0.0576
     13 C         145.3932  142.4673  158.1833 C.3     1  UNL1        0.0163
     14 C         146.5782  142.7657  157.3133 C.3     1  UNL1        0.0058
     15 N         146.5454  143.8877  153.7738 N.pl3   1  UNL1       -0.3560
     16 C         147.8633  143.2264  154.0491 C.ar    1  UNL1        0.0569
     17 C         149.0484  143.5247  153.1791 C.ar    1  UNL1        0.1126
     18 N         150.3662  142.8634  153.4544 N.ar    1  UNL1       -0.2411
     19 C         150.4991  141.9038  154.5996 C.ar    1  UNL1        0.0987
     20 C         149.3142  141.6055  155.4695 C.ar    1  UNL1        0.0176
     21 C         147.9962  142.2668  155.1943 C.ar    1  UNL1       -0.0065
     22 H         146.4582  144.5175  153.0221 H       1  UNL1        0.1424
     23 H         145.7677  143.6920  154.3447 H       1  UNL1        0.1424
     24 C         137.9439  139.5328  161.0331 C.3     1  UNL1        0.1747
     25 N         137.3609  140.6083  161.9010 N.pl3   1  UNL1       -0.3106
     26 H         136.3880  140.7585  161.9121 H       1  UNL1        0.1486
     27 C         138.2602  141.4551  162.7521 C.ar    1  UNL1        0.1320
     28 N         138.7945  142.7516  162.2196 N.ar    1  UNL1       -0.2092
     29 C         139.6938  143.5982  163.0706 C.ar    1  UNL1        0.2000
     30 N         140.0588  143.1484  164.4543 N.ar    1  UNL1       -0.2239
     31 C         139.5246  141.8519  164.9868 C.ar    1  UNL1        0.0857
     32 C         139.8896  141.4021  166.3705 C.ar    1  UNL1        0.0192
     33 C         139.3553  140.1057  166.9030 C.ar    1  UNL1        0.0054
     34 C         138.4559  139.2589  166.0519 C.ar    1  UNL1        0.0716
     35 C         138.0909  139.7087  164.6683 C.ar    1  UNL1        0.0081
     36 C         138.6253  141.0053  164.1357 C.ar    1  UNL1        0.0491
     37 C         137.9217  137.9624  166.5845 C.3     1  UNL1        0.4186
     38 F         137.3874  136.6659  167.1170 F       1  UNL1       -0.1659
     39 F         137.2874  138.6943  167.7299 F       1  UNL1       -0.1659
     40 F         138.5559  137.2306  165.4391 F       1  UNL1       -0.1659
@<TRIPOS>BOND
     1    15    16    1
     2    16    17   ar
     3    17    18   ar
     4    18    19   ar
     5    19    20   ar
     6    20    21   ar
     7     9    21    1
     8     9    10    1
     9    10    11    1
    10    11    12    1
    11    12     5    1
    12     5     6    1
    13     6     7    1
    14     7     1    1
    15     1     2   am
    16     2     3    2
    17     2    24    1
    18    24    25    1
    19    25    27    1
    20    27    28   ar
    21    28    29   ar
    22    29    30   ar
    23    30    31   ar
    24    31    32   ar
    25    32    33   ar
    26    33    34   ar
    27    34    37    1
    28    37    38    1
    29    37    39    1
    30    37    40    1
    31    34    35   ar
    32    35    36   ar
    33     7     8    1
    34    12    13    1
    35    13    14    1
    36    21    16   ar
    37    14     9    1
    38     8     5    1
    39    36    27   ar
    40    36    31   ar
    41    15    22    1
    42    15    23    1
    43     1     4    1
    44    25    26    1
@<TRIPOS>MOLECULE
*****
 40 44 0 0 0
SMALL
GASTEIGER

@<TRIPOS>ATOM
      1 N         142.7809  137.7551  159.5186 N.am    1  UNL1       -0.3018
      2 C         141.7242  138.0718  158.5022 C.2     1  UNL1        0.2425
      3 O         140.5008  138.8398  158.9067 O.2     1  UNL1       -0.2733
      4 H         143.5839  137.2511  159.2532 H       1  UNL1        0.1495
      5 N         142.3784  138.8444  162.9487 N.3     1  UNL1       -0.2711
      6 C         141.7210  137.8142  162.0789 C.3     1  UNL1        0.0933
      7 C         142.6142  138.2063  160.9394 C.3     1  UNL1        0.1035
      8 C         143.2716  139.2364  161.8092 C.3     1  UNL1        0.0933
      9 C         141.8781  140.1980  167.2111 C.3     1  UNL1        0.0237
     10 C         142.9101  139.1646  166.8685 C.3     1  UNL1        0.0058
     11 C         143.0768  138.7135  165.4477 C.3     1  UNL1        0.0163
     12 C         142.2116  139.2956  164.3695 C.3     1  UNL1        0.0576
     13 C         141.1797  140.3288  164.7120 C.3     1  UNL1        0.0163
     14 C         141.0129  140.7801  166.1328 C.3     1  UNL1        0.0058
     15 N         143.4745  142.5177  168.2454 N.pl3   1  UNL1       -0.3560
     16 C         142.5095  141.8090  169.1490 C.ar    1  UNL1        0.0569
     17 C         142.3427  142.2602  170.5698 C.ar    1  UNL1        0.1126
     18 N         141.3778  141.5515  171.4734 N.ar    1  UNL1       -0.2411
     19 C         140.5795  140.3916  170.9562 C.ar    1  UNL1        0.0987
     20 C         140.7463  139.9404  169.5355 C.ar    1  UNL1        0.0176
     21 C         141.7113  140.6491  168.6318 C.ar    1  UNL1       -0.0065
     22 H         143.9984  143.2790  168.5849 H       1  UNL1        0.1424
     23 H         143.5840  142.2216  167.3129 H       1  UNL1        0.1424
     24 C         141.8909  137.6206  157.0815 C.3     1  UNL1        0.1747
     25 N         142.4337  136.2535  156.7875 N.pl3   1  UNL1       -0.3106
     26 H         142.9386  135.7655  157.4775 H       1  UNL1        0.1486
     27 C         142.2071  135.6300  155.4421 C.ar    1  UNL1        0.1320
     28 N         141.5565  136.4232  154.3478 N.ar    1  UNL1       -0.2092
     29 C         141.3299  135.7997  153.0025 C.ar    1  UNL1        0.2000
     30 N         141.7540  134.3829  152.7515 N.ar    1  UNL1       -0.2239
     31 C         142.4046  133.5897  153.8458 C.ar    1  UNL1        0.0857
     32 C         142.8286  132.1730  153.5948 C.ar    1  UNL1        0.0192
     33 C         143.4792  131.3798  154.6891 C.ar    1  UNL1        0.0054
     34 C         143.7058  132.0033  156.0344 C.ar    1  UNL1        0.0716
     35 C         143.2818  133.4200  156.2855 C.ar    1  UNL1        0.0081
     36 C         142.6311  134.2133  155.1911 C.ar    1  UNL1        0.0491
     37 C         144.3564  131.2101  157.1287 C.3     1  UNL1        0.4186
     38 F         145.0071  130.4168  158.2230 F       1  UNL1       -0.1659
     39 F         143.0122  130.7043  157.5613 F       1  UNL1       -0.1659
     40 F         145.7006  131.7159  156.6962 F       1  UNL1       -0.1659
@<TRIPOS>BOND
     1    15    16    1
     2    16    17   ar
     3    17    18   ar
     4    18    19   ar
     5    19    20   ar
     6    20    21   ar
     7     9    21    1
     8     9    10    1
     9    10    11    1
    10    11    12    1
    11    12     5    1
    12     5     6    1
    13     6     7    1
    14     7     1    1
    15     1     2   am
    16     2     3    2
    17     2    24    1
    18    24    25    1
    19    25    27    1
    20    27    28   ar
    21    28    29   ar
    22    29    30   ar
    23    30    31   ar
    24    31    32   ar
    25    32    33   ar
    26    33    34   ar
    27    34    37    1
    28    37    38    1
    29    37    39    1
    30    37    40    1
    31    34    35   ar
    32    35    36   ar
    33     7     8    1
    34    12    13    1
    35    13    14    1
    36    21    16   ar
    37    14     9    1
    38     8     5    1
    39    36    27   ar
    40    36    31   ar
    41    15    22    1
    42    15    23    1
    43     1     4    1
    44    25    26    1
@<TRIPOS>MOLECULE
*****
 40 44 0 0 0
SMALL
GASTEIGER

@<TRIPOS>ATOM
      1 N         140.3009  140.2555  161.1040 N.am    1  UNL1       -0.3018
      2 C         139.3261  139.1800  160.7259 C.2     1  UNL1        0.2425
      3 O         139.5045  138.4232  159.4431 O.2     1  UNL1       -0.2733
      4 H         140.1838  140.7522  161.9459 H       1  UNL1        0.1495
      5 N         143.0851  141.0250  158.9199 N.3     1  UNL1       -0.2711
      6 C         142.8392  140.0290  160.0142 C.3     1  UNL1        0.0933
      7 C         141.4542  140.5743  160.1993 C.3     1  UNL1        0.1035
      8 C         141.7000  141.5702  159.1050 C.3     1  UNL1        0.0933
      9 C         146.5449  141.9811  156.2059 C.3     1  UNL1        0.0237
     10 C         145.6070  140.8628  155.8599 C.3     1  UNL1        0.0058
     11 C         144.4537  140.5441  156.7645 C.3     1  UNL1        0.0163
     12 C         144.2384  141.3436  158.0152 C.3     1  UNL1        0.0576
     13 C         145.1763  142.4619  158.3613 C.3     1  UNL1        0.0163
     14 C         146.3296  142.7806  157.4567 C.3     1  UNL1        0.0058
     15 N         146.2528  144.0853  154.0877 N.pl3   1  UNL1       -0.3560
     16 C         147.5521  143.3519  154.2422 C.ar    1  UNL1        0.0569
     17 C         148.7055  143.6705  153.3375 C.ar    1  UNL1        0.1126
     18 N         150.0047  142.9371  153.4920 N.ar    1  UNL1       -0.2411
     19 C         150.1508  141.8850  154.5511 C.ar    1  UNL1        0.0987
     20 C         148.9975  141.5663  155.4558 C.ar    1  UNL1        0.0176
     21 C         147.6982  142.2998  155.3013 C.ar    1  UNL1       -0.0065
     22 H         146.1570  144.7758  153.3925 H       1  UNL1        0.1424
     23 H         145.4959  143.8761  154.6814 H       1  UNL1        0.1424
     24 C         138.1728  138.8612  161.6305 C.3     1  UNL1        0.1747
     25 N         137.6432  139.9063  162.5672 N.pl3   1  UNL1       -0.3106
     26 H         136.8930  140.4807  162.2905 H       1  UNL1        0.1486
     27 C         138.2566  140.0762  163.9255 C.ar    1  UNL1        0.1320
     28 N         138.3377  138.9083  164.8633 N.ar    1  UNL1       -0.2092
     29 C         138.9511  139.0782  166.2215 C.ar    1  UNL1        0.2000
     30 N         139.4834  140.4160  166.6420 N.ar    1  UNL1       -0.2239
     31 C         139.4023  141.5839  165.7043 C.ar    1  UNL1        0.0857
     32 C         139.9347  142.9218  166.1248 C.ar    1  UNL1        0.0192
     33 C         139.8536  144.0897  165.1870 C.ar    1  UNL1        0.0054
     34 C         139.2402  143.9198  163.8287 C.ar    1  UNL1        0.0716
     35 C         138.7079  142.5819  163.4082 C.ar    1  UNL1        0.0081
     36 C         138.7890  141.4140  164.3460 C.ar    1  UNL1        0.0491
     37 C         139.1591  145.0877  162.8910 C.3     1  UNL1        0.4186
     38 F         139.0781  146.2557  161.9532 F       1  UNL1       -0.1659
     39 F         137.6849  144.8593  162.7341 F       1  UNL1       -0.1659
     40 F         140.6333  145.3160  163.0480 F       1  UNL1       -0.1659
@<TRIPOS>BOND
     1    15    16    1
     2    16    17   ar
     3    17    18   ar
     4    18    19   ar
     5    19    20   ar
     6    20    21   ar
     7     9    21    1
     8     9    10    1
     9    10    11    1
    10    11    12    1
    11    12     5    1
    12     5     6    1
    13     6     7    1
    14     7     1    1
    15     1     2   am
    16     2     3    2
    17     2    24    1
    18    24    25    1
    19    25    27    1
    20    27    28   ar
    21    28    29   ar
    22    29    30   ar
    23    30    31   ar
    24    31    32   ar
    25    32    33   ar
    26    33    34   ar
    27    34    37    1
    28    37    38    1
    29    37    39    1
    30    37    40    1
    31    34    35   ar
    32    35    36   ar
    33     7     8    1
    34    12    13    1
    35    13    14    1
    36    21    16   ar
    37    14     9    1
    38     8     5    1
    39    36    27   ar
    40    36    31   ar
    41    15    22    1
    42    15    23    1
    43     1     4    1
    44    25    26    1
@<TRIPOS>MOLECULE
*****
 40 44 0 0 0
SMALL
GASTEIGER

@<TRIPOS>ATOM
      1 N         144.1451  139.3033  159.5578 N.am    1  UNL1       -0.3018
      2 C         143.9592  140.3962  158.5474 C.2     1  UNL1        0.2425
      3 O         143.3821  141.7156  158.9672 O.2     1  UNL1       -0.2733
      4 H         144.5239  138.4373  159.2823 H       1  UNL1        0.1495
      5 N         143.2002  139.8500  163.0108 N.3     1  UNL1       -0.2711
      6 C         142.5259  139.2614  161.8070 C.3     1  UNL1        0.0933
      7 C         143.7537  139.5298  160.9881 C.3     1  UNL1        0.1035
      8 C         144.4279  140.1183  162.1918 C.3     1  UNL1        0.0933
      9 C         142.0260  140.5294  167.3014 C.3     1  UNL1        0.0237
     10 C         142.8586  139.3378  166.9313 C.3     1  UNL1        0.0058
     11 C         143.2500  139.1114  165.5011 C.3     1  UNL1        0.0163
     12 C         142.8088  140.0764  164.4409 C.3     1  UNL1        0.0576
     13 C         141.9762  141.2680  164.8110 C.3     1  UNL1        0.0163
     14 C         141.5847  141.4945  166.2412 C.3     1  UNL1        0.0058
     15 N         143.4904  142.5604  168.9538 N.pl3   1  UNL1       -0.3560
     16 C         142.3668  141.7713  169.5578 C.ar    1  UNL1        0.0569
     17 C         141.9753  141.9978  170.9881 C.ar    1  UNL1        0.1126
     18 N         140.8517  141.2087  171.5920 N.ar    1  UNL1       -0.2411
     19 C         140.1195  140.1932  170.7658 C.ar    1  UNL1        0.0987
     20 C         140.5109  139.9667  169.3356 C.ar    1  UNL1        0.0176
     21 C         141.6346  140.7558  168.7316 C.ar    1  UNL1       -0.0065
     22 H         143.9710  143.2269  169.4961 H       1  UNL1        0.1424
     23 H         143.7473  142.4118  168.0151 H       1  UNL1        0.1424
     24 C         144.3506  140.1698  157.1172 C.3     1  UNL1        0.1747
     25 N         145.5491  140.8693  156.5478 N.pl3   1  UNL1       -0.3106
     26 H         146.4550  140.5596  156.7774 H       1  UNL1        0.1486
     27 C         145.3674  142.0406  155.6285 C.ar    1  UNL1        0.1320
     28 N         144.0269  142.7041  155.5151 N.ar    1  UNL1       -0.2092
     29 C         143.8453  143.8754  154.5958 C.ar    1  UNL1        0.2000
     30 N         145.0041  144.3831  153.7900 N.ar    1  UNL1       -0.2239
     31 C         146.3445  143.7196  153.9034 C.ar    1  UNL1        0.0857
     32 C         147.5033  144.2274  153.0975 C.ar    1  UNL1        0.0192
     33 C         148.8437  143.5639  153.2109 C.ar    1  UNL1        0.0054
     34 C         149.0254  142.3925  154.1302 C.ar    1  UNL1        0.0716
     35 C         147.8667  141.8848  154.9360 C.ar    1  UNL1        0.0081
     36 C         146.5262  142.5484  154.8226 C.ar    1  UNL1        0.0491
     37 C         150.3659  141.7290  154.2436 C.3     1  UNL1        0.4186
     38 F         151.7064  141.0654  154.3569 F       1  UNL1       -0.1659
     39 F         150.3790  142.0074  155.7174 F       1  UNL1       -0.1659
     40 F         150.3528  141.4506  152.7697 F       1  UNL1       -0.1659
@<TRIPOS>BOND
     1    15    16    1
     2    16    17   ar
     3    17    18   ar
     4    18    19   ar
     5    19    20   ar
     6    20    21   ar
     7     9    21    1
     8     9    10    1
     9    10    11    1
    10    11    12    1
    11    12     5    1
    12     5     6    1
    13     6     7    1
    14     7     1    1
    15     1     2   am
    16     2     3    2
    17     2    24    1
    18    24    25    1
    19    25    27    1
    20    27    28   ar
    21    28    29   ar
    22    29    30   ar
    23    30    31   ar
    24    31    32   ar
    25    32    33   ar
    26    33    34   ar
    27    34    37    1
    28    37    38    1
    29    37    39    1
    30    37    40    1
    31    34    35   ar
    32    35    36   ar
    33     7     8    1
    34    12    13    1
    35    13    14    1
    36    21    16   ar
    37    14     9    1
    38     8     5    1
    39    36    27   ar
    40    36    31   ar
    41    15    22    1
    42    15    23    1
    43     1     4    1
    44    25    26    1
@<TRIPOS>MOLECULE
*****
 40 44 0 0 0
SMALL
GASTEIGER

@<TRIPOS>ATOM
      1 N         140.6089  142.4519  159.9199 N.am    1  UNL1       -0.3018
      2 C         141.7177  143.4412  160.1243 C.2     1  UNL1        0.2425
      3 O         143.0896  143.1509  159.5914 O.2     1  UNL1       -0.2733
      4 H         139.7086  142.6423  160.2696 H       1  UNL1        0.1495
      5 N         141.2439  139.3627  158.1399 N.3     1  UNL1       -0.2711
      6 C         141.0751  139.7407  159.5816 C.3     1  UNL1        0.0933
      7 C         140.8719  141.1723  159.1825 C.3     1  UNL1        0.1035
      8 C         141.0406  140.7944  157.7409 C.3     1  UNL1        0.0933
      9 C         142.0329  135.5241  155.9281 C.3     1  UNL1        0.0237
     10 C         140.6567  136.1209  155.9273 C.3     1  UNL1        0.0058
     11 C         140.3937  137.4004  156.6646 C.3     1  UNL1        0.0163
     12 C         141.5068  138.0832  157.4026 C.3     1  UNL1        0.0576
     13 C         142.8830  137.4864  157.4034 C.3     1  UNL1        0.0163
     14 C         143.1460  136.2068  156.6661 C.3     1  UNL1        0.0058
     15 N         143.0656  133.1263  157.4060 N.pl3   1  UNL1       -0.3560
     16 C         142.8122  133.0457  155.9298 C.ar    1  UNL1        0.0569
     17 C         143.0752  131.7661  155.1924 C.ar    1  UNL1        0.1126
     18 N         142.8219  131.6854  153.7162 N.ar    1  UNL1       -0.2411
     19 C         142.3055  132.8843  152.9772 C.ar    1  UNL1        0.0987
     20 C         142.0425  134.1639  153.7145 C.ar    1  UNL1        0.0176
     21 C         142.2959  134.2445  155.1908 C.ar    1  UNL1       -0.0065
     22 H         143.4045  132.3394  157.8910 H       1  UNL1        0.1424
     23 H         142.8930  133.9661  157.8899 H       1  UNL1        0.1424
     24 C         141.4548  144.7207  160.8616 C.3     1  UNL1        0.1747
     25 N         142.3985  145.1752  161.9353 N.pl3   1  UNL1       -0.3106
     26 H         142.6886  146.1153  161.9701 H       1  UNL1        0.1486
     27 C         142.9002  144.1972  162.9561 C.ar    1  UNL1        0.1320
     28 N         144.3009  143.6685  162.8634 N.ar    1  UNL1       -0.2092
     29 C         144.8025  142.6906  163.8841 C.ar    1  UNL1        0.2000
     30 N         143.9034  142.2413  164.9976 N.ar    1  UNL1       -0.2239
     31 C         142.5027  142.7699  165.0903 C.ar    1  UNL1        0.0857
     32 C         141.6037  142.3206  166.2038 C.ar    1  UNL1        0.0192
     33 C         140.2030  142.8492  166.2965 C.ar    1  UNL1        0.0054
     34 C         139.7013  143.8272  165.2757 C.ar    1  UNL1        0.0716
     35 C         140.6004  144.2765  164.1622 C.ar    1  UNL1        0.0081
     36 C         142.0011  143.7479  164.0696 C.ar    1  UNL1        0.0491
     37 C         138.3007  144.3558  165.3684 C.3     1  UNL1        0.4186
     38 F         136.8999  144.8844  165.4611 F       1  UNL1       -0.1659
     39 F         138.7843  145.4867  166.2270 F       1  UNL1       -0.1659
     40 F         137.8170  143.2249  164.5099 F       1  UNL1       -0.1659
@<TRIPOS>BOND
     1    15    16    1
     2    16    17   ar
     3    17    18   ar
     4    18    19   ar
     5    19    20   ar
     6    20    21   ar
     7     9    21    1
     8     9    10    1
     9    10    11    1
    10    11    12    1
    11    12     5    1
    12     5     6    1
    13     6     7    1
    14     7     1    1
    15     1     2   am
    16     2     3    2
    17     2    24    1
    18    24    25    1
    19    25    27    1
    20    27    28   ar
    21    28    29   ar
    22    29    30   ar
    23    30    31   ar
    24    31    32   ar
    25    32    33   ar
    26    33    34   ar
    27    34    37    1
    28    37    38    1
    29    37    39    1
    30    37    40    1
    31    34    35   ar
    32    35    36   ar
    33     7     8    1
    34    12    13    1
    35    13    14    1
    36    21    16   ar
    37    14     9    1
    38     8     5    1
    39    36    27   ar
    40    36    31   ar
    41    15    22    1
    42    15    23    1
    43     1     4    1
    44    25    26    1
@<TRIPOS>MOLECULE
*****
 40 44 0 0 0
SMALL
GASTEIGER

@<TRIPOS>ATOM
      1 N         140.7886  139.8213  161.9467 N.am    1  UNL1       -0.3018
      2 C         139.5435  139.0983  161.5260 C.2     1  UNL1        0.2425
      3 O         139.3159  138.7765  160.0787 O.2     1  UNL1       -0.2733
      4 H         140.9380  140.0326  162.8966 H       1  UNL1        0.1495
      5 N         143.2449  140.7898  159.4682 N.3     1  UNL1       -0.2711
      6 C         141.8599  141.2436  159.8226 C.3     1  UNL1        0.0933
      7 C         141.8061  140.2224  160.9201 C.3     1  UNL1        0.1035
      8 C         143.1911  139.7686  160.5657 C.3     1  UNL1        0.0933
      9 C         146.2972  141.9931  156.3884 C.3     1  UNL1        0.0237
     10 C         146.1635  142.7793  157.6589 C.3     1  UNL1        0.0058
     11 C         145.1461  142.3782  158.6855 C.3     1  UNL1        0.0163
     12 C         144.2624  141.1909  158.4416 C.3     1  UNL1        0.0576
     13 C         144.3961  140.4047  157.1712 C.3     1  UNL1        0.0163
     14 C         145.4135  140.8059  156.1445 C.3     1  UNL1        0.0058
     15 N         145.6322  144.1030  154.3620 N.pl3   1  UNL1       -0.3560
     16 C         146.9821  143.4492  154.3486 C.ar    1  UNL1        0.0569
     17 C         147.9996  143.8503  153.3220 C.ar    1  UNL1        0.1126
     18 N         149.3495  143.1965  153.3086 N.ar    1  UNL1       -0.2411
     19 C         149.6821  142.1416  154.3218 C.ar    1  UNL1        0.0987
     20 C         148.6646  141.7405  155.3484 C.ar    1  UNL1        0.0176
     21 C         147.3146  142.3943  155.3618 C.ar    1  UNL1       -0.0065
     22 H         145.4140  144.7953  153.6969 H       1  UNL1        0.1424
     23 H         144.9644  143.8397  155.0357 H       1  UNL1        0.1424
     24 C         138.5260  138.6972  162.5525 C.3     1  UNL1        0.1747
     25 N         137.5693  139.7156  163.0981 N.pl3   1  UNL1       -0.3106
     26 H         136.6808  139.4354  163.4165 H       1  UNL1        0.1486
     27 C         137.9663  141.1609  163.1586 C.ar    1  UNL1        0.1320
     28 N         137.5934  142.0885  162.0403 N.ar    1  UNL1       -0.2092
     29 C         137.9904  143.5337  162.1008 C.ar    1  UNL1        0.2000
     30 N         138.7603  144.0513  163.2796 N.ar    1  UNL1       -0.2239
     31 C         139.1332  143.1237  164.3978 C.ar    1  UNL1        0.0857
     32 C         139.9031  143.6413  165.5765 C.ar    1  UNL1        0.0192
     33 C         140.2759  142.7137  166.6947 C.ar    1  UNL1        0.0054
     34 C         139.8789  141.2684  166.6343 C.ar    1  UNL1        0.0716
     35 C         139.1091  140.7508  165.4555 C.ar    1  UNL1        0.0081
     36 C         138.7362  141.6785  164.3373 C.ar    1  UNL1        0.0491
     37 C         140.2518  140.3408  167.7525 C.3     1  UNL1        0.4186
     38 F         140.6247  139.4131  168.8708 F       1  UNL1       -0.1659
     39 F         141.6466  140.8924  167.7450 F       1  UNL1       -0.1659
     40 F         138.8570  139.7891  167.7599 F       1  UNL1       -0.1659
@<TRIPOS>BOND
     1    15    16    1
     2    16    17   ar
     3    17    18   ar
     4    18    19   ar
     5    19    20   ar
     6    20    21   ar
     7     9    21    1
     8     9    10    1
     9    10    11    1
    10    11    12    1
    11    12     5    1
    12     5     6    1
    13     6     7    1
    14     7     1    1
    15     1     2   am
    16     2     3    2
    17     2    24    1
    18    24    25    1
    19    25    27    1
    20    27    28   ar
    21    28    29   ar
    22    29    30   ar
    23    30    31   ar
    24    31    32   ar
    25    32    33   ar
    26    33    34   ar
    27    34    37    1
    28    37    38    1
    29    37    39    1
    30    37    40    1
    31    34    35   ar
    32    35    36   ar
    33     7     8    1
    34    12    13    1
    35    13    14    1
    36    21    16   ar
    37    14     9    1
    38     8     5    1
    39    36    27   ar
    40    36    31   ar
    41    15    22    1
    42    15    23    1
    43     1     4    1
    44    25    26    1
@<TRIPOS>MOLECULE
*****
 40 44 0 0 0
SMALL
GASTEIGER

@<TRIPOS>ATOM
      1 N         139.7534  138.8108  159.3946 N.am    1  UNL1       -0.3018
      2 C         140.9509  138.5886  158.5191 C.2     1  UNL1        0.2425
      3 O         142.3319  138.7211  159.0895 O.2     1  UNL1       -0.2733
      4 H         138.8469  138.7239  159.0203 H       1  UNL1        0.1495
      5 N         140.1964  139.6671  162.8853 N.3     1  UNL1       -0.2711
      6 C         139.6571  140.3773  161.6791 C.3     1  UNL1        0.0933
      7 C         139.9369  139.1655  160.8405 C.3     1  UNL1        0.1035
      8 C         140.4761  138.4553  162.0466 C.3     1  UNL1        0.0933
      9 C         140.7468  140.7311  167.2229 C.3     1  UNL1        0.0237
     10 C         141.7079  141.2510  166.1953 C.3     1  UNL1        0.0058
     11 C         141.5245  140.8963  164.7494 C.3     1  UNL1        0.0163
     12 C         140.3799  140.0217  164.3311 C.3     1  UNL1        0.0576
     13 C         139.4187  139.5018  165.3587 C.3     1  UNL1        0.0163
     14 C         139.6022  139.8565  166.8046 C.3     1  UNL1        0.0058
     15 N         142.7585  139.2527  168.8865 N.pl3   1  UNL1       -0.3560
     16 C         141.9361  140.3465  169.5005 C.ar    1  UNL1        0.0569
     17 C         142.1196  140.7012  170.9464 C.ar    1  UNL1        0.1126
     18 N         141.2972  141.7951  171.5605 N.ar    1  UNL1       -0.2411
     19 C         140.2914  142.5343  170.7287 C.ar    1  UNL1        0.0987
     20 C         140.1079  142.1797  169.2829 C.ar    1  UNL1        0.0176
     21 C         140.9303  141.0857  168.6688 C.ar    1  UNL1       -0.0065
     22 H         143.4187  138.7675  169.4324 H       1  UNL1        0.1424
     23 H         142.6381  139.0199  167.9375 H       1  UNL1        0.1424
     24 C         140.7674  138.2340  157.0732 C.3     1  UNL1        0.1747
     25 N         140.0209  136.9891  156.6952 N.pl3   1  UNL1       -0.3106
     26 H         139.4738  136.5203  157.3661 H       1  UNL1        0.1486
     27 C         140.1078  136.4585  155.2948 C.ar    1  UNL1        0.1320
     28 N         139.2894  137.0831  154.2039 N.ar    1  UNL1       -0.2092
     29 C         139.3764  136.5525  152.8037 C.ar    1  UNL1        0.2000
     30 N         140.2819  135.3973  152.4943 N.ar    1  UNL1       -0.2239
     31 C         141.1003  134.7727  153.5851 C.ar    1  UNL1        0.0857
     32 C         142.0057  133.6175  153.2757 C.ar    1  UNL1        0.0192
     33 C         142.8241  132.9929  154.3666 C.ar    1  UNL1        0.0054
     34 C         142.7371  133.5236  155.7670 C.ar    1  UNL1        0.0716
     35 C         141.8317  134.6787  156.0764 C.ar    1  UNL1        0.0081
     36 C         141.0133  135.3033  154.9854 C.ar    1  UNL1        0.0491
     37 C         143.5556  132.8990  156.8579 C.3     1  UNL1        0.4186
     38 F         144.3740  132.2744  157.9488 F       1  UNL1       -0.1659
     39 F         142.6977  131.6700  156.7978 F       1  UNL1       -0.1659
     40 F         144.4134  134.1280  156.9179 F       1  UNL1       -0.1659
@<TRIPOS>BOND
     1    15    16    1
     2    16    17   ar
     3    17    18   ar
     4    18    19   ar
     5    19    20   ar
     6    20    21   ar
     7     9    21    1
     8     9    10    1
     9    10    11    1
    10    11    12    1
    11    12     5    1
    12     5     6    1
    13     6     7    1
    14     7     1    1
    15     1     2   am
    16     2     3    2
    17     2    24    1
    18    24    25    1
    19    25    27    1
    20    27    28   ar
    21    28    29   ar
    22    29    30   ar
    23    30    31   ar
    24    31    32   ar
    25    32    33   ar
    26    33    34   ar
    27    34    37    1
    28    37    38    1
    29    37    39    1
    30    37    40    1
    31    34    35   ar
    32    35    36   ar
    33     7     8    1
    34    12    13    1
    35    13    14    1
    36    21    16   ar
    37    14     9    1
    38     8     5    1
    39    36    27   ar
    40    36    31   ar
    41    15    22    1
    42    15    23    1
    43     1     4    1
    44    25    26    1
