@<TRIPOS>MOLECULE
*****
 29 33 0 0 0
SMALL
GASTEIGER

@<TRIPOS>ATOM
      1 O         137.4262  139.5073  170.7167 O.3     1  UNL1       -0.3598
      2 C         138.6436  139.9862  169.9827 C.3     1  UNL1        0.2364
      3 C         139.6980  140.7679  170.7088 C.3     1  UNL1        0.0872
      4 C         140.9154  141.2468  169.9748 C.ar    1  UNL1       -0.0189
      5 C         141.9698  142.0284  170.7008 C.ar    1  UNL1       -0.0043
      6 C         143.1871  142.5073  169.9668 C.ar    1  UNL1       -0.0003
      7 C         143.3500  142.2046  168.5067 C.ar    1  UNL1       -0.0003
      8 C         142.2956  141.4230  167.7807 C.ar    1  UNL1       -0.0023
      9 C         141.0783  140.9441  168.5147 C.ar    1  UNL1       -0.0017
     10 C         140.0238  140.1624  167.7886 C.3     1  UNL1        0.1136
     11 C         141.2411  140.6414  167.0546 C.3     1  UNL1        0.0329
     12 C         141.4040  140.3386  165.5945 C.3     1  UNL1        0.0187
     13 C         140.3495  139.5570  164.8685 C.3     1  UNL1        0.0578
     14 C         139.1322  139.0781  165.6025 C.3     1  UNL1        0.0187
     15 C         138.9694  139.3808  167.0626 C.3     1  UNL1        0.0329
     16 O         138.8065  139.6835  168.5226 O.3     1  UNL1       -0.3311
     17 H         137.4777  139.7857  171.6445 H       1  UNL1        0.2130
     18 N         140.5124  139.2542  163.4084 N.3     1  UNL1       -0.2716
     19 C         141.6346  139.8790  162.6335 C.3     1  UNL1        0.0896
     20 C         141.7975  139.5763  161.1734 C.3     1  UNL1        0.0896
     21 N         140.8381  138.6488  160.4882 N.3     1  UNL1       -0.2716
     22 C         139.7160  138.0241  161.2631 C.3     1  UNL1        0.0896
     23 C         139.5531  138.3268  162.7232 C.3     1  UNL1        0.0896
     24 C         141.0010  138.3461  159.0281 C.3     1  UNL1        0.0576
     25 C         139.8097  138.3823  158.1172 C.3     1  UNL1        0.0160
     26 C         139.9726  138.0796  156.6572 C.3     1  UNL1        0.0014
     27 C         141.3267  137.7406  156.1080 C.3     1  UNL1        0.0001
     28 C         142.5179  137.7044  157.0189 C.3     1  UNL1        0.0014
     29 C         142.3550  138.0072  158.4790 C.3     1  UNL1        0.0160
@<TRIPOS>BOND
     1     2     1    1
     2     2     3    1
     3     3     4    1
     4     4     5   ar
     5     5     6   ar
     6     6     7   ar
     7     7     8   ar
     8     8     9   ar
     9     9    10    1
    10    10    11    1
    11    11    12    1
    12    12    13    1
    13    13    18    1
    14    18    19    1
    15    19    20    1
    16    20    21    1
    17    21    24    1
    18    24    25    1
    19    25    26    1
    20    26    27    1
    21    27    28    1
    22    28    29    1
    23    21    22    1
    24    22    23    1
    25    13    14    1
    26    14    15    1
    27    10    16    1
    28    16     2    1
    29     9     4   ar
    30    15    10    1
    31    23    18    1
    32    29    24    1
    33     1    17    1
@<TRIPOS>MOLECULE
*****
 29 33 0 0 0
SMALL
GASTEIGER

@<TRIPOS>ATOM
      1 O         143.3573  137.6178  170.7133 O.3     1  UNL1       -0.3598
      2 C         142.8113  138.7380  169.8783 C.3     1  UNL1        0.2364
      3 C         142.0805  139.8732  170.5319 C.3     1  UNL1        0.0872
      4 C         141.5344  140.9934  169.6969 C.ar    1  UNL1       -0.0189
      5 C         140.8037  142.1286  170.3504 C.ar    1  UNL1       -0.0043
      6 C         140.2577  143.2488  169.5155 C.ar    1  UNL1       -0.0003
      7 C         140.4425  143.2336  168.0270 C.ar    1  UNL1       -0.0003
      8 C         141.1733  142.0984  167.3734 C.ar    1  UNL1       -0.0023
      9 C         141.7193  140.9783  168.2084 C.ar    1  UNL1       -0.0017
     10 C         142.4501  139.8430  167.5549 C.3     1  UNL1        0.1136
     11 C         141.9041  140.9632  166.7199 C.3     1  UNL1        0.0329
     12 C         142.0889  140.9481  165.2314 C.3     1  UNL1        0.0187
     13 C         142.8197  139.8127  164.5779 C.3     1  UNL1        0.0578
     14 C         143.3657  138.6926  165.4129 C.3     1  UNL1        0.0187
     15 C         143.1809  138.7078  166.9014 C.3     1  UNL1        0.0329
     16 O         142.9961  138.7229  168.3898 O.3     1  UNL1       -0.3311
     17 H         143.1527  137.7813  171.6473 H       1  UNL1        0.2130
     18 N         143.0045  139.7976  163.0894 N.3     1  UNL1       -0.2716
     19 C         142.4905  140.9356  162.2582 C.3     1  UNL1        0.0896
     20 C         142.6753  140.9205  160.7697 C.3     1  UNL1        0.0896
     21 N         143.3741  139.7674  160.1124 N.3     1  UNL1       -0.2716
     22 C         143.8881  138.6294  160.9436 C.3     1  UNL1        0.0896
     23 C         143.7033  138.6446  162.4321 C.3     1  UNL1        0.0896
     24 C         143.5589  139.7522  158.6239 C.3     1  UNL1        0.0576
     25 C         142.8942  138.6923  157.7964 C.3     1  UNL1        0.0160
     26 C         143.0790  138.6772  156.3079 C.3     1  UNL1        0.0014
     27 C         143.9285  139.7220  155.6469 C.3     1  UNL1        0.0001
     28 C         144.5932  140.7818  156.4745 C.3     1  UNL1        0.0014
     29 C         144.4084  140.7970  157.9630 C.3     1  UNL1        0.0160
@<TRIPOS>BOND
     1     2     1    1
     2     2     3    1
     3     3     4    1
     4     4     5   ar
     5     5     6   ar
     6     6     7   ar
     7     7     8   ar
     8     8     9   ar
     9     9    10    1
    10    10    11    1
    11    11    12    1
    12    12    13    1
    13    13    18    1
    14    18    19    1
    15    19    20    1
    16    20    21    1
    17    21    24    1
    18    24    25    1
    19    25    26    1
    20    26    27    1
    21    27    28    1
    22    28    29    1
    23    21    22    1
    24    22    23    1
    25    13    14    1
    26    14    15    1
    27    10    16    1
    28    16     2    1
    29     9     4   ar
    30    15    10    1
    31    23    18    1
    32    29    24    1
    33     1    17    1
@<TRIPOS>MOLECULE
*****
 29 33 0 0 0
SMALL
GASTEIGER

@<TRIPOS>ATOM
      1 O         144.8596  142.8775  170.3249 O.3     1  UNL1       -0.3598
      2 C         143.7450  142.3855  169.4499 C.3     1  UNL1        0.2364
      3 C         142.6154  141.5987  170.0455 C.3     1  UNL1        0.0872
      4 C         141.5008  141.1066  169.1705 C.ar    1  UNL1       -0.0189
      5 C         140.3712  140.3198  169.7662 C.ar    1  UNL1       -0.0043
      6 C         139.2566  139.8278  168.8912 C.ar    1  UNL1       -0.0003
      7 C         139.2716  140.1227  167.4206 C.ar    1  UNL1       -0.0003
      8 C         140.4012  140.9095  166.8249 C.ar    1  UNL1       -0.0023
      9 C         141.5158  141.4015  167.6999 C.ar    1  UNL1       -0.0017
     10 C         142.6455  142.1884  167.1042 C.3     1  UNL1        0.1136
     11 C         141.5308  141.6963  166.2292 C.3     1  UNL1        0.0329
     12 C         141.5458  141.9912  164.7586 C.3     1  UNL1        0.0187
     13 C         142.6755  142.7781  164.1629 C.3     1  UNL1        0.0578
     14 C         143.7901  143.2700  165.0379 C.3     1  UNL1        0.0187
     15 C         143.7751  142.9752  166.5086 C.3     1  UNL1        0.0329
     16 O         143.7600  142.6803  167.9792 O.3     1  UNL1       -0.3311
     17 H         144.6970  142.6028  171.2408 H       1  UNL1        0.2130
     18 N         142.6905  143.0729  162.6922 N.3     1  UNL1       -0.2716
     19 C         143.6701  142.3735  161.7971 C.3     1  UNL1        0.0896
     20 C         143.6852  142.6683  160.3264 C.3     1  UNL1        0.0896
     21 N         142.7206  143.6626  159.7509 N.3     1  UNL1       -0.2716
     22 C         141.7411  144.3620  160.6461 C.3     1  UNL1        0.0896
     23 C         141.7261  144.0671  162.1168 C.3     1  UNL1        0.0896
     24 C         142.7356  143.9575  158.2803 C.3     1  UNL1        0.0576
     25 C         143.3990  143.0041  157.3309 C.3     1  UNL1        0.0160
     26 C         143.4140  143.2989  155.8603 C.3     1  UNL1        0.0014
     27 C         142.7657  144.5472  155.3390 C.3     1  UNL1        0.0001
     28 C         142.1024  145.5005  156.2883 C.3     1  UNL1        0.0014
     29 C         142.0874  145.2056  157.7589 C.3     1  UNL1        0.0160
@<TRIPOS>BOND
     1     2     1    1
     2     2     3    1
     3     3     4    1
     4     4     5   ar
     5     5     6   ar
     6     6     7   ar
     7     7     8   ar
     8     8     9   ar
     9     9    10    1
    10    10    11    1
    11    11    12    1
    12    12    13    1
    13    13    18    1
    14    18    19    1
    15    19    20    1
    16    20    21    1
    17    21    24    1
    18    24    25    1
    19    25    26    1
    20    26    27    1
    21    27    28    1
    22    28    29    1
    23    21    22    1
    24    22    23    1
    25    13    14    1
    26    14    15    1
    27    10    16    1
    28    16     2    1
    29     9     4   ar
    30    15    10    1
    31    23    18    1
    32    29    24    1
    33     1    17    1
@<TRIPOS>MOLECULE
*****
 29 33 0 0 0
SMALL
GASTEIGER

@<TRIPOS>ATOM
      1 O         143.9001  143.5584  170.8091 O.3     1  UNL1       -0.3598
      2 C         142.9859  142.7817  169.9084 C.3     1  UNL1        0.2364
      3 C         141.7726  142.1053  170.4742 C.3     1  UNL1        0.0872
      4 C         140.8583  141.3286  169.5735 C.ar    1  UNL1       -0.0189
      5 C         139.6450  140.6522  170.1393 C.ar    1  UNL1       -0.0043
      6 C         138.7309  139.8756  169.2386 C.ar    1  UNL1       -0.0003
      7 C         139.0301  139.7755  167.7722 C.ar    1  UNL1       -0.0003
      8 C         140.2434  140.4520  167.2064 C.ar    1  UNL1       -0.0023
      9 C         141.1575  141.2285  168.1071 C.ar    1  UNL1       -0.0017
     10 C         142.3710  141.9051  167.5413 C.3     1  UNL1        0.1136
     11 C         141.4567  141.1284  166.6406 C.3     1  UNL1        0.0329
     12 C         141.7559  141.0284  165.1742 C.3     1  UNL1        0.0187
     13 C         142.9694  141.7049  164.6084 C.3     1  UNL1        0.0578
     14 C         143.8835  142.4814  165.5091 C.3     1  UNL1        0.0187
     15 C         143.5843  142.5815  166.9755 C.3     1  UNL1        0.0329
     16 O         143.2851  142.6816  168.4420 O.3     1  UNL1       -0.3311
     17 H         143.5648  143.5229  171.7186 H       1  UNL1        0.2130
     18 N         143.2686  141.6048  163.1420 N.3     1  UNL1       -0.2716
     19 C         142.5594  140.5860  162.2997 C.3     1  UNL1        0.0896
     20 C         142.8586  140.4859  160.8332 C.3     1  UNL1        0.0896
     21 N         143.8670  141.4046  160.2091 N.3     1  UNL1       -0.2716
     22 C         144.5760  142.4233  161.0514 C.3     1  UNL1        0.0896
     23 C         144.2768  142.5234  162.5178 C.3     1  UNL1        0.0896
     24 C         144.1662  141.3045  158.7426 C.3     1  UNL1        0.0576
     25 C         143.6575  140.1359  157.9515 C.3     1  UNL1        0.0160
     26 C         143.9567  140.0358  156.4850 C.3     1  UNL1        0.0014
     27 C         144.7646  141.1043  155.8097 C.3     1  UNL1        0.0001
     28 C         145.2731  142.2727  156.6009 C.3     1  UNL1        0.0014
     29 C         144.9739  142.3728  158.0674 C.3     1  UNL1        0.0160
@<TRIPOS>BOND
     1     2     1    1
     2     2     3    1
     3     3     4    1
     4     4     5   ar
     5     5     6   ar
     6     6     7   ar
     7     7     8   ar
     8     8     9   ar
     9     9    10    1
    10    10    11    1
    11    11    12    1
    12    12    13    1
    13    13    18    1
    14    18    19    1
    15    19    20    1
    16    20    21    1
    17    21    24    1
    18    24    25    1
    19    25    26    1
    20    26    27    1
    21    27    28    1
    22    28    29    1
    23    21    22    1
    24    22    23    1
    25    13    14    1
    26    14    15    1
    27    10    16    1
    28    16     2    1
    29     9     4   ar
    30    15    10    1
    31    23    18    1
    32    29    24    1
    33     1    17    1
@<TRIPOS>MOLECULE
*****
 29 33 0 0 0
SMALL
GASTEIGER

@<TRIPOS>ATOM
      1 O         136.6219  137.6293  167.7622 O.3     1  UNL1       -0.3598
      2 C         137.7411  138.4500  167.1930 C.3     1  UNL1        0.2364
      3 C         138.4295  139.4738  168.0461 C.3     1  UNL1        0.0872
      4 C         139.5486  140.2945  167.4769 C.ar    1  UNL1       -0.0189
      5 C         140.2370  141.3183  168.3300 C.ar    1  UNL1       -0.0043
      6 C         141.3561  142.1389  167.7608 C.ar    1  UNL1       -0.0003
      7 C         141.7868  141.9358  166.3384 C.ar    1  UNL1       -0.0003
      8 C         141.0984  140.9121  165.4852 C.ar    1  UNL1       -0.0023
      9 C         139.9793  140.0914  166.0545 C.ar    1  UNL1       -0.0017
     10 C         139.2908  139.0676  165.2013 C.3     1  UNL1        0.1136
     11 C         140.4100  139.8883  164.6320 C.3     1  UNL1        0.0329
     12 C         140.8407  139.6852  163.2096 C.3     1  UNL1        0.0187
     13 C         140.1522  138.6614  162.3565 C.3     1  UNL1        0.0578
     14 C         139.0331  137.8407  162.9257 C.3     1  UNL1        0.0187
     15 C         138.6024  138.0438  164.3481 C.3     1  UNL1        0.0329
     16 O         138.1717  138.2469  165.7705 O.3     1  UNL1       -0.3311
     17 H         136.4714  137.8842  168.6859 H       1  UNL1        0.2130
     18 N         140.5829  138.4583  160.9340 N.3     1  UNL1       -0.2716
     19 C         142.0152  138.1396  160.6223 C.3     1  UNL1        0.0896
     20 C         142.4458  137.9365  159.1999 C.3     1  UNL1        0.0896
     21 N         141.4442  138.0521  158.0892 N.3     1  UNL1       -0.2716
     22 C         140.0120  138.3707  158.4010 C.3     1  UNL1        0.0896
     23 C         139.5814  138.5738  159.8234 C.3     1  UNL1        0.0896
     24 C         141.8749  137.8490  156.6668 C.3     1  UNL1        0.0576
     25 C         142.7673  136.6970  156.3106 C.3     1  UNL1        0.0160
     26 C         143.1980  136.4939  154.8881 C.3     1  UNL1        0.0014
     27 C         142.7363  137.4428  153.8220 C.3     1  UNL1        0.0001
     28 C         141.8440  138.5946  154.1782 C.3     1  UNL1        0.0014
     29 C         141.4133  138.7977  155.6006 C.3     1  UNL1        0.0160
@<TRIPOS>BOND
     1     2     1    1
     2     2     3    1
     3     3     4    1
     4     4     5   ar
     5     5     6   ar
     6     6     7   ar
     7     7     8   ar
     8     8     9   ar
     9     9    10    1
    10    10    11    1
    11    11    12    1
    12    12    13    1
    13    13    18    1
    14    18    19    1
    15    19    20    1
    16    20    21    1
    17    21    24    1
    18    24    25    1
    19    25    26    1
    20    26    27    1
    21    27    28    1
    22    28    29    1
    23    21    22    1
    24    22    23    1
    25    13    14    1
    26    14    15    1
    27    10    16    1
    28    16     2    1
    29     9     4   ar
    30    15    10    1
    31    23    18    1
    32    29    24    1
    33     1    17    1
@<TRIPOS>MOLECULE
*****
 29 33 0 0 0
SMALL
GASTEIGER

@<TRIPOS>ATOM
      1 O         136.8008  137.6204  167.1612 O.3     1  UNL1       -0.3598
      2 C         137.7556  138.7636  166.9833 C.3     1  UNL1        0.2364
      3 C         138.5587  139.2584  168.1496 C.3     1  UNL1        0.0872
      4 C         139.5135  140.4016  167.9717 C.ar    1  UNL1       -0.0189
      5 C         140.3166  140.8964  169.1379 C.ar    1  UNL1       -0.0043
      6 C         141.2713  142.0396  168.9600 C.ar    1  UNL1       -0.0003
      7 C         141.4229  142.6879  167.6159 C.ar    1  UNL1       -0.0003
      8 C         140.6198  142.1931  166.4496 C.ar    1  UNL1       -0.0023
      9 C         139.6651  141.0499  166.6276 C.ar    1  UNL1       -0.0017
     10 C         138.8619  140.5550  165.4613 C.3     1  UNL1        0.1136
     11 C         139.8167  141.6982  165.2834 C.3     1  UNL1        0.0329
     12 C         139.9684  142.3465  163.9393 C.3     1  UNL1        0.0187
     13 C         139.1652  141.8516  162.7730 C.3     1  UNL1        0.0578
     14 C         138.2105  140.7085  162.9509 C.3     1  UNL1        0.0187
     15 C         138.0589  140.0602  164.2951 C.3     1  UNL1        0.0329
     16 O         137.9072  139.4119  165.6392 O.3     1  UNL1       -0.3311
     17 H         136.8243  137.3199  168.0832 H       1  UNL1        0.2130
     18 N         139.3168  142.4999  161.4289 N.3     1  UNL1       -0.2716
     19 C         138.5764  141.9529  160.2445 C.3     1  UNL1        0.0896
     20 C         138.7280  142.6012  158.9004 C.3     1  UNL1        0.0896
     21 N         139.6201  143.7965  158.7406 N.3     1  UNL1       -0.2716
     22 C         140.3605  144.3435  159.9249 C.3     1  UNL1        0.0896
     23 C         140.2089  143.6952  161.2690 C.3     1  UNL1        0.0896
     24 C         139.7717  144.4449  157.3965 C.3     1  UNL1        0.0576
     25 C         140.3114  145.8407  157.2936 C.3     1  UNL1        0.0160
     26 C         140.4630  146.4890  155.9495 C.3     1  UNL1        0.0014
     27 C         140.0750  145.7415  154.7082 C.3     1  UNL1        0.0001
     28 C         139.5353  144.3457  154.8111 C.3     1  UNL1        0.0014
     29 C         139.3837  143.6974  156.1552 C.3     1  UNL1        0.0160
@<TRIPOS>BOND
     1     2     1    1
     2     2     3    1
     3     3     4    1
     4     4     5   ar
     5     5     6   ar
     6     6     7   ar
     7     7     8   ar
     8     8     9   ar
     9     9    10    1
    10    10    11    1
    11    11    12    1
    12    12    13    1
    13    13    18    1
    14    18    19    1
    15    19    20    1
    16    20    21    1
    17    21    24    1
    18    24    25    1
    19    25    26    1
    20    26    27    1
    21    27    28    1
    22    28    29    1
    23    21    22    1
    24    22    23    1
    25    13    14    1
    26    14    15    1
    27    10    16    1
    28    16     2    1
    29     9     4   ar
    30    15    10    1
    31    23    18    1
    32    29    24    1
    33     1    17    1
@<TRIPOS>MOLECULE
*****
 29 33 0 0 0
SMALL
GASTEIGER

@<TRIPOS>ATOM
      1 O         139.9748  143.6075  169.6550 O.3     1  UNL1       -0.3598
      2 C         140.5596  142.7828  168.5468 C.3     1  UNL1        0.2364
      3 C         141.3321  141.5373  168.8661 C.3     1  UNL1        0.0872
      4 C         141.9170  140.7127  167.7579 C.ar    1  UNL1       -0.0189
      5 C         142.6895  139.4672  168.0772 C.ar    1  UNL1       -0.0043
      6 C         143.2743  138.6427  166.9691 C.ar    1  UNL1       -0.0003
      7 C         143.0866  139.0636  165.5416 C.ar    1  UNL1       -0.0003
      8 C         142.3141  140.3091  165.2223 C.ar    1  UNL1       -0.0023
      9 C         141.7293  141.1336  166.3305 C.ar    1  UNL1       -0.0017
     10 C         140.9568  142.3792  166.0112 C.3     1  UNL1        0.1136
     11 C         141.5416  141.5546  164.9030 C.3     1  UNL1        0.0329
     12 C         141.3540  141.9755  163.4756 C.3     1  UNL1        0.0187
     13 C         140.5814  143.2211  163.1563 C.3     1  UNL1        0.0578
     14 C         139.9966  144.0456  164.2645 C.3     1  UNL1        0.0187
     15 C         140.1843  143.6247  165.6919 C.3     1  UNL1        0.0329
     16 O         140.3720  143.2038  167.1194 O.3     1  UNL1       -0.3311
     17 H         140.1867  143.1986  170.5087 H       1  UNL1        0.2130
     18 N         140.3938  143.6420  161.7289 N.3     1  UNL1       -0.2716
     19 C         140.8338  145.0056  161.2850 C.3     1  UNL1        0.0896
     20 C         140.6461  145.4266  159.8576 C.3     1  UNL1        0.0896
     21 N         140.0184  144.4839  158.8740 N.3     1  UNL1       -0.2716
     22 C         139.5784  143.1203  159.3179 C.3     1  UNL1        0.0896
     23 C         139.7661  142.6994  160.7453 C.3     1  UNL1        0.0896
     24 C         139.8307  144.9048  157.4466 C.3     1  UNL1        0.0576
     25 C         140.2921  146.2596  156.9973 C.3     1  UNL1        0.0160
     26 C         140.1045  146.6805  155.5698 C.3     1  UNL1        0.0014
     27 C         139.4554  145.7466  154.5917 C.3     1  UNL1        0.0001
     28 C         138.9940  144.3920  155.0410 C.3     1  UNL1        0.0014
     29 C         139.1817  143.9710  156.4684 C.3     1  UNL1        0.0160
@<TRIPOS>BOND
     1     2     1    1
     2     2     3    1
     3     3     4    1
     4     4     5   ar
     5     5     6   ar
     6     6     7   ar
     7     7     8   ar
     8     8     9   ar
     9     9    10    1
    10    10    11    1
    11    11    12    1
    12    12    13    1
    13    13    18    1
    14    18    19    1
    15    19    20    1
    16    20    21    1
    17    21    24    1
    18    24    25    1
    19    25    26    1
    20    26    27    1
    21    27    28    1
    22    28    29    1
    23    21    22    1
    24    22    23    1
    25    13    14    1
    26    14    15    1
    27    10    16    1
    28    16     2    1
    29     9     4   ar
    30    15    10    1
    31    23    18    1
    32    29    24    1
    33     1    17    1
@<TRIPOS>MOLECULE
*****
 29 33 0 0 0
SMALL
GASTEIGER

@<TRIPOS>ATOM
      1 O         143.4236  142.5240  168.6873 O.3     1  UNL1       -0.3598
      2 C         142.3439  142.0594  167.7554 C.3     1  UNL1        0.2364
      3 C         141.3370  141.0487  168.2186 C.3     1  UNL1        0.0872
      4 C         140.2572  140.5842  167.2867 C.ar    1  UNL1       -0.0189
      5 C         139.2503  139.5735  167.7499 C.ar    1  UNL1       -0.0043
      6 C         138.1707  139.1090  166.8180 C.ar    1  UNL1       -0.0003
      7 C         138.0979  139.6552  165.4229 C.ar    1  UNL1       -0.0003
      8 C         139.1048  140.6659  164.9597 C.ar    1  UNL1       -0.0023
      9 C         140.1844  141.1304  165.8916 C.ar    1  UNL1       -0.0017
     10 C         141.1914  142.1411  165.4284 C.3     1  UNL1        0.1136
     11 C         140.1117  141.6766  164.4965 C.3     1  UNL1        0.0329
     12 C         140.0389  142.2228  163.1013 C.3     1  UNL1        0.0187
     13 C         141.0458  143.2335  162.6381 C.3     1  UNL1        0.0578
     14 C         142.1255  143.6980  163.5700 C.3     1  UNL1        0.0187
     15 C         142.1983  143.1518  164.9652 C.3     1  UNL1        0.0329
     16 O         142.2711  142.6056  166.3603 O.3     1  UNL1       -0.3311
     17 H         143.3275  142.0761  169.5424 H       1  UNL1        0.2130
     18 N         140.9731  143.7797  161.2430 N.3     1  UNL1       -0.2716
     19 C         140.6661  145.2311  161.0209 C.3     1  UNL1        0.0896
     20 C         140.5934  145.7773  159.6257 C.3     1  UNL1        0.0896
     21 N         140.8275  144.8721  158.4527 N.3     1  UNL1       -0.2716
     22 C         141.1344  143.4208  158.6749 C.3     1  UNL1        0.0896
     23 C         141.2072  142.8746  160.0700 C.3     1  UNL1        0.0896
     24 C         140.7547  145.4183  157.0576 C.3     1  UNL1        0.0576
     25 C         141.6219  144.8392  155.9793 C.3     1  UNL1        0.0160
     26 C         141.5491  145.3854  154.5842 C.3     1  UNL1        0.0014
     27 C         140.6091  146.5107  154.2674 C.3     1  UNL1        0.0001
     28 C         139.7420  147.0897  155.3457 C.3     1  UNL1        0.0014
     29 C         139.8148  146.5435  156.7408 C.3     1  UNL1        0.0160
@<TRIPOS>BOND
     1     2     1    1
     2     2     3    1
     3     3     4    1
     4     4     5   ar
     5     5     6   ar
     6     6     7   ar
     7     7     8   ar
     8     8     9   ar
     9     9    10    1
    10    10    11    1
    11    11    12    1
    12    12    13    1
    13    13    18    1
    14    18    19    1
    15    19    20    1
    16    20    21    1
    17    21    24    1
    18    24    25    1
    19    25    26    1
    20    26    27    1
    21    27    28    1
    22    28    29    1
    23    21    22    1
    24    22    23    1
    25    13    14    1
    26    14    15    1
    27    10    16    1
    28    16     2    1
    29     9     4   ar
    30    15    10    1
    31    23    18    1
    32    29    24    1
    33     1    17    1
@<TRIPOS>MOLECULE
*****
 29 33 0 0 0
SMALL
GASTEIGER

@<TRIPOS>ATOM
      1 O         137.1708  139.1474  170.6400 O.3     1  UNL1       -0.3598
      2 C         138.3209  139.7234  169.8683 C.3     1  UNL1        0.2364
      3 C         139.3906  140.4961  170.5814 C.3     1  UNL1        0.0872
      4 C         140.5407  141.0722  169.8097 C.ar    1  UNL1       -0.0189
      5 C         141.6104  141.8449  170.5229 C.ar    1  UNL1       -0.0043
      6 C         142.7605  142.4209  169.7512 C.ar    1  UNL1       -0.0003
      7 C         142.8408  142.2242  168.2663 C.ar    1  UNL1       -0.0003
      8 C         141.7711  141.4516  167.5531 C.ar    1  UNL1       -0.0023
      9 C         140.6211  140.8755  168.3248 C.ar    1  UNL1       -0.0017
     10 C         139.5513  140.1028  167.6117 C.3     1  UNL1        0.1136
     11 C         140.7014  140.6789  166.8400 C.3     1  UNL1        0.0329
     12 C         140.7817  140.4822  165.3551 C.3     1  UNL1        0.0187
     13 C         139.7119  139.7095  164.6419 C.3     1  UNL1        0.0578
     14 C         138.5619  139.1335  165.4136 C.3     1  UNL1        0.0187
     15 C         138.4816  139.3301  166.8985 C.3     1  UNL1        0.0329
     16 O         138.4013  139.5268  168.3834 O.3     1  UNL1       -0.3311
     17 H         137.2712  139.3644  171.5800 H       1  UNL1        0.2130
     18 N         139.7923  139.5129  163.1570 N.3     1  UNL1       -0.2716
     19 C         138.5424  139.2703  162.3639 C.3     1  UNL1        0.0896
     20 C         138.6227  139.0736  160.8790 C.3     1  UNL1        0.0896
     21 N         139.9529  139.1195  160.1873 N.3     1  UNL1       -0.2716
     22 C         141.2027  139.3621  160.9804 C.3     1  UNL1        0.0896
     23 C         141.1224  139.5588  162.4653 C.3     1  UNL1        0.0896
     24 C         140.0333  138.9229  158.7024 C.3     1  UNL1        0.0576
     25 C         139.0751  139.6399  157.7979 C.3     1  UNL1        0.0160
     26 C         139.1554  139.4432  156.3131 C.3     1  UNL1        0.0014
     27 C         140.1939  138.5296  155.7326 C.3     1  UNL1        0.0001
     28 C         141.1520  137.8127  156.6370 C.3     1  UNL1        0.0014
     29 C         141.0717  138.0093  158.1219 C.3     1  UNL1        0.0160
@<TRIPOS>BOND
     1     2     1    1
     2     2     3    1
     3     3     4    1
     4     4     5   ar
     5     5     6   ar
     6     6     7   ar
     7     7     8   ar
     8     8     9   ar
     9     9    10    1
    10    10    11    1
    11    11    12    1
    12    12    13    1
    13    13    18    1
    14    18    19    1
    15    19    20    1
    16    20    21    1
    17    21    24    1
    18    24    25    1
    19    25    26    1
    20    26    27    1
    21    27    28    1
    22    28    29    1
    23    21    22    1
    24    22    23    1
    25    13    14    1
    26    14    15    1
    27    10    16    1
    28    16     2    1
    29     9     4   ar
    30    15    10    1
    31    23    18    1
    32    29    24    1
    33     1    17    1
