@<TRIPOS>MOLECULE
*****
 33 34 0 0 0
SMALL
GASTEIGER

@<TRIPOS>ATOM
      1 C         141.7363  142.9316  164.3643 C.3     1  UNL1        0.0197
      2 C         142.8555  143.9238  164.4773 C.3     1  UNL1        0.0187
      3 C         144.2799  143.4590  164.4061 C.3     1  UNL1        0.0722
      4 N         144.7749  142.7427  163.1847 N.3     1  UNL1       -0.2712
      5 C         144.4166  143.2516  161.8199 C.3     1  UNL1        0.0896
      6 C         145.6283  141.5175  163.3281 C.3     1  UNL1        0.0768
      7 C         145.2204  140.4257  164.2723 C.3     1  UNL1        0.0438
      8 C         141.6145  137.8928  163.3603 C.ar    1  UNL1        0.1724
      9 C         142.0418  138.1049  164.7824 C.ar    1  UNL1        0.0397
     10 C         143.2438  138.9492  165.0864 C.ar    1  UNL1       -0.0009
     11 C         144.0184  139.5814  163.9683 C.ar    1  UNL1       -0.0176
     12 C         143.5911  139.3693  162.5462 C.ar    1  UNL1        0.0358
     13 C         142.3891  138.5250  162.2422 C.ar    1  UNL1        0.1721
     14 C         139.0461  137.6671  163.0401 C.3     1  UNL1        0.2526
     15 O         140.4125  137.0485  163.0563 O.3     1  UNL1       -0.4684
     16 O         141.9618  138.3129  160.8201 O.3     1  UNL1       -0.4684
     17 C         142.9386  137.7780  159.8153 C.3     1  UNL1        0.2526
     18 C         140.3159  143.3796  164.5426 C.3     1  UNL1        0.0981
     19 C         140.1700  142.4519  165.7123 C.ar    1  UNL1       -0.0065
     20 C         140.5459  142.9154  167.0884 C.ar    1  UNL1        0.0000
     21 C         140.4000  141.9877  168.2581 C.ar    1  UNL1        0.0398
     22 C         139.8783  140.5966  168.0516 C.ar    1  UNL1        0.1724
     23 C         139.5025  140.1332  166.6755 C.ar    1  UNL1        0.1721
     24 C         139.6483  141.0609  165.5058 C.ar    1  UNL1        0.0367
     25 O         139.7325  139.6690  169.2213 O.3     1  UNL1       -0.4684
     26 C         140.3673  140.0139  170.5359 C.3     1  UNL1        0.2526
     27 O         138.9808  138.7421  166.4689 O.3     1  UNL1       -0.4684
     28 C         137.6102  138.3751  166.9556 C.3     1  UNL1        0.2526
     29 C         138.8955  143.8276  164.7208 C.3     1  UNL1        0.0169
     30 C         137.7869  143.1047  164.0149 C.3     1  UNL1        0.0014
     31 C         138.5838  144.9986  165.6050 C.3     1  UNL1        0.0014
     32 C         140.4617  144.3073  163.3729 C.1     1  UNL1        0.0752
     33 N         140.6076  145.2349  162.2032 N.1     1  UNL1       -0.1956
@<TRIPOS>BOND
     1    14    15    1
     2    15     8    1
     3     8     9   ar
     4     9    10   ar
     5    10    11   ar
     6    11     7    1
     7     7     6    1
     8     6     4    1
     9     4     5    1
    10     4     3    1
    11     3     2    1
    12     2     1    1
    13     1    18    1
    14    18    32    1
    15    32    33    3
    16    18    19    1
    17    19    20   ar
    18    20    21   ar
    19    21    22   ar
    20    22    25    1
    21    25    26    1
    22    22    23   ar
    23    23    27    1
    24    27    28    1
    25    23    24   ar
    26    18    29    1
    27    29    30    1
    28    29    31    1
    29    11    12   ar
    30    12    13   ar
    31    13    16    1
    32    16    17    1
    33    13     8   ar
    34    24    19   ar
@<TRIPOS>MOLECULE
*****
 33 34 0 0 0
SMALL
GASTEIGER

@<TRIPOS>ATOM
      1 C         141.6518  142.8055  164.3600 C.3     1  UNL1        0.0197
      2 C         142.7614  143.8113  164.4429 C.3     1  UNL1        0.0187
      3 C         144.1903  143.3560  164.4119 C.3     1  UNL1        0.0722
      4 N         144.7513  142.7302  163.1695 N.3     1  UNL1       -0.2712
      5 C         144.3806  143.2752  161.8221 C.3     1  UNL1        0.0896
      6 C         145.6829  141.5593  163.2745 C.3     1  UNL1        0.0768
      7 C         145.3431  140.4088  164.1750 C.3     1  UNL1        0.0438
      8 C         141.7144  137.8854  163.3299 C.ar    1  UNL1        0.1724
      9 C         142.1670  138.0983  164.7440 C.ar    1  UNL1        0.0397
     10 C         143.3766  138.9394  165.0257 C.ar    1  UNL1       -0.0009
     11 C         144.1335  139.5677  163.8933 C.ar    1  UNL1       -0.0176
     12 C         143.6808  139.3548  162.4792 C.ar    1  UNL1        0.0358
     13 C         142.4713  138.5137  162.1975 C.ar    1  UNL1        0.1721
     14 C         139.1668  137.6948  162.8572 C.3     1  UNL1        0.2526
     15 O         140.5048  137.0443  163.0482 O.3     1  UNL1       -0.4684
     16 O         142.0186  138.3008  160.7833 O.3     1  UNL1       -0.4684
     17 C         143.0010  137.8577  159.7400 C.3     1  UNL1        0.2526
     18 C         140.2359  143.2276  164.6192 C.3     1  UNL1        0.0981
     19 C         140.2017  142.3613  165.8433 C.ar    1  UNL1       -0.0065
     20 C         139.9245  140.8927  165.7153 C.ar    1  UNL1        0.0000
     21 C         139.8903  140.0264  166.9393 C.ar    1  UNL1        0.0398
     22 C         140.1333  140.6287  168.2914 C.ar    1  UNL1        0.1724
     23 C         140.4106  142.0973  168.4194 C.ar    1  UNL1        0.1721
     24 C         140.4448  142.9636  167.1953 C.ar    1  UNL1        0.0367
     25 O         140.0992  139.7624  169.5155 O.3     1  UNL1       -0.4684
     26 C         141.3775  139.3870  170.2046 C.3     1  UNL1        0.2526
     27 O         140.6536  142.6996  169.7716 O.3     1  UNL1       -0.4684
     28 C         142.0405  143.1055  170.1735 C.3     1  UNL1        0.2526
     29 C         138.8201  143.6497  164.8784 C.3     1  UNL1        0.0169
     30 C         138.5383  144.9762  165.5195 C.3     1  UNL1        0.0014
     31 C         137.6860  142.7453  164.4964 C.3     1  UNL1        0.0014
     32 C         140.2701  144.0939  163.3951 C.1     1  UNL1        0.0752
     33 N         140.3043  144.9602  162.1710 N.1     1  UNL1       -0.1956
@<TRIPOS>BOND
     1    14    15    1
     2    15     8    1
     3     8     9   ar
     4     9    10   ar
     5    10    11   ar
     6    11     7    1
     7     7     6    1
     8     6     4    1
     9     4     5    1
    10     4     3    1
    11     3     2    1
    12     2     1    1
    13     1    18    1
    14    18    32    1
    15    32    33    3
    16    18    19    1
    17    19    20   ar
    18    20    21   ar
    19    21    22   ar
    20    22    25    1
    21    25    26    1
    22    22    23   ar
    23    23    27    1
    24    27    28    1
    25    23    24   ar
    26    18    29    1
    27    29    30    1
    28    29    31    1
    29    11    12   ar
    30    12    13   ar
    31    13    16    1
    32    16    17    1
    33    13     8   ar
    34    24    19   ar
@<TRIPOS>MOLECULE
*****
 33 34 0 0 0
SMALL
GASTEIGER

@<TRIPOS>ATOM
      1 C         140.3022  140.0335  166.9353 C.3     1  UNL1        0.0197
      2 C         138.8784  139.6096  167.1422 C.3     1  UNL1        0.0187
      3 C         138.1279  138.9347  166.0326 C.3     1  UNL1        0.0722
      4 N         138.6609  138.9792  164.6312 N.3     1  UNL1       -0.2712
      5 C         138.5928  140.2536  163.8429 C.3     1  UNL1        0.0896
      6 C         139.2621  137.7493  164.0180 C.3     1  UNL1        0.0768
      7 C         140.5302  137.1756  164.5773 C.3     1  UNL1        0.0438
      8 C         144.3948  139.4462  164.1784 C.ar    1  UNL1        0.1724
      9 C         143.9247  138.9974  165.5302 C.ar    1  UNL1        0.0397
     10 C         142.6365  138.2406  165.6632 C.ar    1  UNL1       -0.0009
     11 C         141.8184  137.9325  164.4443 C.ar    1  UNL1       -0.0176
     12 C         142.2885  138.3813  163.0925 C.ar    1  UNL1        0.0358
     13 C         143.5767  139.1381  162.9595 C.ar    1  UNL1        0.1721
     14 C         145.6649  141.6970  163.9121 C.3     1  UNL1        0.2526
     15 O         145.6830  140.2031  164.0454 O.3     1  UNL1       -0.4684
     16 O         144.0468  139.5869  161.6075 O.3     1  UNL1       -0.4684
     17 C         143.7463  138.7564  160.3952 C.3     1  UNL1        0.2526
     18 C         140.8772  141.1539  167.7503 C.3     1  UNL1        0.0981
     19 C         140.7684  142.0701  166.5676 C.ar    1  UNL1       -0.0065
     20 C         139.8110  143.2243  166.5987 C.ar    1  UNL1        0.0000
     21 C         139.7021  144.1406  165.4161 C.ar    1  UNL1        0.0398
     22 C         140.5506  143.9025  164.2023 C.ar    1  UNL1        0.1724
     23 C         141.5081  142.7483  164.1712 C.ar    1  UNL1        0.1721
     24 C         141.6169  141.8321  165.3539 C.ar    1  UNL1        0.0367
     25 O         140.4418  144.8188  163.0197 O.3     1  UNL1       -0.4684
     26 C         139.2071  144.8007  162.1681 C.3     1  UNL1        0.2526
     27 O         142.3567  142.5102  162.9574 O.3     1  UNL1       -0.4684
     28 C         141.7273  142.0228  161.6861 C.3     1  UNL1        0.2526
     29 C         141.4522  142.2742  168.5653 C.3     1  UNL1        0.0169
     30 C         142.9302  142.5298  168.5515 C.3     1  UNL1        0.0014
     31 C         140.5492  143.1389  169.3941 C.3     1  UNL1        0.0014
     32 C         140.9861  140.2376  168.9329 C.1     1  UNL1        0.0752
     33 N         141.0949  139.3214  170.1156 N.1     1  UNL1       -0.1956
@<TRIPOS>BOND
     1    14    15    1
     2    15     8    1
     3     8     9   ar
     4     9    10   ar
     5    10    11   ar
     6    11     7    1
     7     7     6    1
     8     6     4    1
     9     4     5    1
    10     4     3    1
    11     3     2    1
    12     2     1    1
    13     1    18    1
    14    18    32    1
    15    32    33    3
    16    18    19    1
    17    19    20   ar
    18    20    21   ar
    19    21    22   ar
    20    22    25    1
    21    25    26    1
    22    22    23   ar
    23    23    27    1
    24    27    28    1
    25    23    24   ar
    26    18    29    1
    27    29    30    1
    28    29    31    1
    29    11    12   ar
    30    12    13   ar
    31    13    16    1
    32    16    17    1
    33    13     8   ar
    34    24    19   ar
@<TRIPOS>MOLECULE
*****
 33 34 0 0 0
SMALL
GASTEIGER

@<TRIPOS>ATOM
      1 C         143.4443  139.3407  164.3596 C.3     1  UNL1        0.0197
      2 C         142.9199  138.7203  163.0987 C.3     1  UNL1        0.0187
      3 C         141.7624  137.7681  163.1563 C.3     1  UNL1        0.0722
      4 N         140.5918  137.9540  162.2371 N.3     1  UNL1       -0.2712
      5 C         140.8179  138.3018  160.7956 C.3     1  UNL1        0.0896
      6 C         139.1949  137.7921  162.7593 C.3     1  UNL1        0.0768
      7 C         138.0641  138.5435  162.1218 C.3     1  UNL1        0.0438
      8 C         137.8963  143.0308  162.4149 C.ar    1  UNL1        0.1724
      9 C         137.6477  142.1899  163.6319 C.ar    1  UNL1        0.0397
     10 C         137.7037  140.6942  163.5342 C.ar    1  UNL1       -0.0009
     11 C         138.0082  140.0393  162.2195 C.ar    1  UNL1       -0.0176
     12 C         138.2568  140.8802  161.0026 C.ar    1  UNL1        0.0358
     13 C         138.2008  142.3760  161.1003 C.ar    1  UNL1        0.1721
     14 C         139.1102  145.3208  162.5953 C.3     1  UNL1        0.2526
     15 O         137.8404  144.5266  162.5126 O.3     1  UNL1       -0.4684
     16 O         138.4494  143.2169  159.8832 O.3     1  UNL1       -0.4684
     17 C         139.7927  143.1922  159.2161 C.3     1  UNL1        0.2526
     18 C         143.2935  140.8154  164.5890 C.3     1  UNL1        0.0981
     19 C         142.2912  140.5445  165.6716 C.ar    1  UNL1       -0.0065
     20 C         140.8332  140.7946  165.4234 C.ar    1  UNL1        0.0000
     21 C         139.8309  140.5237  166.5060 C.ar    1  UNL1        0.0398
     22 C         140.2866  140.0028  167.8367 C.ar    1  UNL1        0.1724
     23 C         141.7446  139.7527  168.0849 C.ar    1  UNL1        0.1721
     24 C         142.7469  140.0236  167.0023 C.ar    1  UNL1        0.0367
     25 O         139.2842  139.7320  168.9193 O.3     1  UNL1       -0.4684
     26 C         139.1048  140.7147  170.0382 C.3     1  UNL1        0.2526
     27 O         142.2003  139.2318  169.4157 O.3     1  UNL1       -0.4684
     28 C         142.8160  140.1651  170.4156 C.3     1  UNL1        0.2526
     29 C         143.1427  142.2900  164.8183 C.3     1  UNL1        0.0169
     30 C         143.9408  142.9674  165.8926 C.3     1  UNL1        0.0014
     31 C         142.1938  143.0873  163.9733 C.3     1  UNL1        0.0014
     32 C         144.2958  141.0862  163.5064 C.1     1  UNL1        0.0752
     33 N         145.2982  141.3571  162.4238 N.1     1  UNL1       -0.1956
@<TRIPOS>BOND
     1    14    15    1
     2    15     8    1
     3     8     9   ar
     4     9    10   ar
     5    10    11   ar
     6    11     7    1
     7     7     6    1
     8     6     4    1
     9     4     5    1
    10     4     3    1
    11     3     2    1
    12     2     1    1
    13     1    18    1
    14    18    32    1
    15    32    33    3
    16    18    19    1
    17    19    20   ar
    18    20    21   ar
    19    21    22   ar
    20    22    25    1
    21    25    26    1
    22    22    23   ar
    23    23    27    1
    24    27    28    1
    25    23    24   ar
    26    18    29    1
    27    29    30    1
    28    29    31    1
    29    11    12   ar
    30    12    13   ar
    31    13    16    1
    32    16    17    1
    33    13     8   ar
    34    24    19   ar
@<TRIPOS>MOLECULE
*****
 33 34 0 0 0
SMALL
GASTEIGER

@<TRIPOS>ATOM
      1 C         140.2770  139.9264  167.2741 C.3     1  UNL1        0.0197
      2 C         138.8013  139.6652  167.2103 C.3     1  UNL1        0.0187
      3 C         138.2707  138.5705  166.3328 C.3     1  UNL1        0.0722
      4 N         138.9834  138.2165  165.0613 N.3     1  UNL1       -0.2712
      5 C         139.7788  136.9476  164.9756 C.3     1  UNL1        0.0896
      6 C         138.9009  139.1314  163.8755 C.3     1  UNL1        0.0768
      7 C         137.7134  140.0317  163.7041 C.3     1  UNL1        0.0438
      8 C         138.2970  144.3068  162.4261 C.ar    1  UNL1        0.1724
      9 C         137.9383  143.9913  163.8480 C.ar    1  UNL1        0.0397
     10 C         137.7438  142.5663  164.2740 C.ar    1  UNL1       -0.0009
     11 C         137.9080  141.4567  163.2781 C.ar    1  UNL1       -0.0176
     12 C         138.2667  141.7722  161.8562 C.ar    1  UNL1        0.0358
     13 C         138.4612  143.1972  161.4302 C.ar    1  UNL1        0.1721
     14 C         139.8716  146.3171  161.9474 C.3     1  UNL1        0.2526
     15 O         138.4915  145.7318  162.0001 O.3     1  UNL1       -0.4684
     16 O         138.8200  143.5126  160.0082 O.3     1  UNL1       -0.4684
     17 C         140.2606  143.5916  159.5980 C.3     1  UNL1        0.2526
     18 C         140.7958  141.1206  168.0189 C.3     1  UNL1        0.0981
     19 C         141.3638  141.6692  166.7436 C.ar    1  UNL1       -0.0065
     20 C         140.7851  142.9141  166.1392 C.ar    1  UNL1        0.0000
     21 C         141.3531  143.4627  164.8639 C.ar    1  UNL1        0.0398
     22 C         142.4999  142.7664  164.1930 C.ar    1  UNL1        0.1724
     23 C         143.0786  141.5216  164.7975 C.ar    1  UNL1        0.1721
     24 C         142.5106  140.9730  166.0728 C.ar    1  UNL1        0.0367
     25 O         143.0679  143.3150  162.9177 O.3     1  UNL1       -0.4684
     26 C         143.8263  144.6091  162.9301 C.3     1  UNL1        0.2526
     27 O         144.2254  140.8253  164.1266 O.3     1  UNL1       -0.4684
     28 C         145.5769  141.4747  164.0858 C.3     1  UNL1        0.2526
     29 C         141.3146  142.3148  168.7637 C.3     1  UNL1        0.0169
     30 C         140.3626  143.3667  169.2507 C.3     1  UNL1        0.0014
     31 C         142.7854  142.4571  169.0215 C.3     1  UNL1        0.0014
     32 C         140.2277  140.5720  169.2942 C.1     1  UNL1        0.0752
     33 N         139.6597  140.0234  170.5695 N.1     1  UNL1       -0.1956
@<TRIPOS>BOND
     1    14    15    1
     2    15     8    1
     3     8     9   ar
     4     9    10   ar
     5    10    11   ar
     6    11     7    1
     7     7     6    1
     8     6     4    1
     9     4     5    1
    10     4     3    1
    11     3     2    1
    12     2     1    1
    13     1    18    1
    14    18    32    1
    15    32    33    3
    16    18    19    1
    17    19    20   ar
    18    20    21   ar
    19    21    22   ar
    20    22    25    1
    21    25    26    1
    22    22    23   ar
    23    23    27    1
    24    27    28    1
    25    23    24   ar
    26    18    29    1
    27    29    30    1
    28    29    31    1
    29    11    12   ar
    30    12    13   ar
    31    13    16    1
    32    16    17    1
    33    13     8   ar
    34    24    19   ar
@<TRIPOS>MOLECULE
*****
 33 34 0 0 0
SMALL
GASTEIGER

@<TRIPOS>ATOM
      1 C         142.4536  140.5506  167.0602 C.3     1  UNL1        0.0197
      2 C         142.8631  139.1078  167.0361 C.3     1  UNL1        0.0187
      3 C         143.7473  138.5973  165.9372 C.3     1  UNL1        0.0722
      4 N         143.5701  139.1027  164.5361 N.3     1  UNL1       -0.2712
      5 C         142.3685  138.6926  163.7372 C.3     1  UNL1        0.0896
      6 C         144.5944  140.0182  163.9338 C.3     1  UNL1        0.0768
      7 C         144.6935  141.4412  164.3976 C.3     1  UNL1        0.0438
      8 C         141.9058  144.5524  162.7245 C.ar    1  UNL1        0.1724
      9 C         142.6658  144.8281  163.9880 C.ar    1  UNL1        0.0397
     10 C         143.5951  143.7910  164.5457 C.ar    1  UNL1       -0.0009
     11 C         143.7643  142.4783  163.8399 C.ar    1  UNL1       -0.0176
     12 C         143.0043  142.2027  162.5765 C.ar    1  UNL1        0.0358
     13 C         142.0750  143.2397  162.0188 C.ar    1  UNL1        0.1721
     14 C         139.5075  145.5158  162.4604 C.3     1  UNL1        0.2526
     15 O         140.9766  145.5895  162.1668 O.3     1  UNL1       -0.4684
     16 O         141.3150  142.9640  160.7552 O.3     1  UNL1       -0.4684
     17 C         141.8445  143.4528  159.4397 C.3     1  UNL1        0.2526
     18 C         141.4284  141.0229  168.0480 C.3     1  UNL1        0.0981
     19 C         140.5109  141.3910  166.9199 C.ar    1  UNL1       -0.0065
     20 C         140.4225  142.8158  166.4595 C.ar    1  UNL1        0.0000
     21 C         139.5050  143.1839  165.3313 C.ar    1  UNL1        0.0398
     22 C         138.6760  142.1272  164.6635 C.ar    1  UNL1        0.1724
     23 C         138.7644  140.7023  165.1239 C.ar    1  UNL1        0.1721
     24 C         139.6818  140.3342  166.2521 C.ar    1  UNL1        0.0367
     25 O         137.7585  142.4952  163.5354 O.3     1  UNL1       -0.4684
     26 C         138.1489  142.1874  162.1202 C.3     1  UNL1        0.2526
     27 O         137.9353  139.6455  164.4562 O.3     1  UNL1       -0.4684
     28 C         138.5675  138.7073  163.4713 C.3     1  UNL1        0.2526
     29 C         140.4031  141.4951  169.0359 C.3     1  UNL1        0.0169
     30 C         139.3487  140.5507  169.5319 C.3     1  UNL1        0.0014
     31 C         140.4324  142.9120  169.5277 C.3     1  UNL1        0.0014
     32 C         142.3458  140.6548  169.1762 C.1     1  UNL1        0.0752
     33 N         143.2633  140.2867  170.3044 N.1     1  UNL1       -0.1956
@<TRIPOS>BOND
     1    14    15    1
     2    15     8    1
     3     8     9   ar
     4     9    10   ar
     5    10    11   ar
     6    11     7    1
     7     7     6    1
     8     6     4    1
     9     4     5    1
    10     4     3    1
    11     3     2    1
    12     2     1    1
    13     1    18    1
    14    18    32    1
    15    32    33    3
    16    18    19    1
    17    19    20   ar
    18    20    21   ar
    19    21    22   ar
    20    22    25    1
    21    25    26    1
    22    22    23   ar
    23    23    27    1
    24    27    28    1
    25    23    24   ar
    26    18    29    1
    27    29    30    1
    28    29    31    1
    29    11    12   ar
    30    12    13   ar
    31    13    16    1
    32    16    17    1
    33    13     8   ar
    34    24    19   ar
@<TRIPOS>MOLECULE
*****
 33 34 0 0 0
SMALL
GASTEIGER

@<TRIPOS>ATOM
      1 C         139.4623  140.9697  163.9252 C.3     1  UNL1        0.0197
      2 C         138.2750  141.7553  164.3976 C.3     1  UNL1        0.0187
      3 C         137.8337  142.9742  163.6430 C.3     1  UNL1        0.0722
      4 N         138.5860  144.2630  163.7938 N.3     1  UNL1       -0.2712
      5 C         138.8066  144.8475  165.1576 C.3     1  UNL1        0.0896
      6 C         139.1179  144.9674  162.5810 C.3     1  UNL1        0.0768
      7 C         140.4605  145.6344  162.6296 C.3     1  UNL1        0.0438
      8 C         144.1921  143.1531  163.0405 C.ar    1  UNL1        0.1724
      9 C         143.8341  144.1508  164.1019 C.ar    1  UNL1        0.0397
     10 C         142.5903  144.9779  163.9649 C.ar    1  UNL1       -0.0009
     11 C         141.7044  144.8073  162.7666 C.ar    1  UNL1       -0.0176
     12 C         142.0623  143.8096  161.7052 C.ar    1  UNL1        0.0358
     13 C         143.3062  142.9825  161.8422 C.ar    1  UNL1        0.1721
     14 C         145.3566  140.9411  163.7482 C.3     1  UNL1        0.2526
     15 O         145.4359  142.3260  163.1775 O.3     1  UNL1       -0.4684
     16 O         143.6641  141.9848  160.7808 O.3     1  UNL1       -0.4684
     17 C         144.5042  142.4033  159.6108 C.3     1  UNL1        0.2526
     18 C         139.5994  139.5225  164.2950 C.3     1  UNL1        0.0981
     19 C         140.4608  139.9025  165.4627 C.ar    1  UNL1       -0.0065
     20 C         141.7956  140.5467  165.2318 C.ar    1  UNL1        0.0000
     21 C         142.6571  140.9266  166.3995 C.ar    1  UNL1        0.0398
     22 C         142.1838  140.6625  167.7981 C.ar    1  UNL1        0.1724
     23 C         140.8490  140.0183  168.0290 C.ar    1  UNL1        0.1721
     24 C         139.9875  139.6383  166.8613 C.ar    1  UNL1        0.0367
     25 O         143.0452  141.0424  168.9658 O.3     1  UNL1       -0.4684
     26 C         143.0717  142.4627  169.4476 C.3     1  UNL1        0.2526
     27 O         140.3756  139.7541  169.4277 O.3     1  UNL1       -0.4684
     28 C         139.5844  140.7962  170.1611 C.3     1  UNL1        0.2526
     29 C         139.7365  138.0753  164.6648 C.3     1  UNL1        0.0169
     30 C         140.9951  137.3314  164.3293 C.3     1  UNL1        0.0014
     31 C         138.6149  137.3719  165.3702 C.3     1  UNL1        0.0014
     32 C         138.7379  139.1425  163.1274 C.1     1  UNL1        0.0752
     33 N         137.8765  138.7625  161.9597 N.1     1  UNL1       -0.1956
@<TRIPOS>BOND
     1    14    15    1
     2    15     8    1
     3     8     9   ar
     4     9    10   ar
     5    10    11   ar
     6    11     7    1
     7     7     6    1
     8     6     4    1
     9     4     5    1
    10     4     3    1
    11     3     2    1
    12     2     1    1
    13     1    18    1
    14    18    32    1
    15    32    33    3
    16    18    19    1
    17    19    20   ar
    18    20    21   ar
    19    21    22   ar
    20    22    25    1
    21    25    26    1
    22    22    23   ar
    23    23    27    1
    24    27    28    1
    25    23    24   ar
    26    18    29    1
    27    29    30    1
    28    29    31    1
    29    11    12   ar
    30    12    13   ar
    31    13    16    1
    32    16    17    1
    33    13     8   ar
    34    24    19   ar
@<TRIPOS>MOLECULE
*****
 33 34 0 0 0
SMALL
GASTEIGER

@<TRIPOS>ATOM
      1 C         141.8302  140.0250  163.5042 C.3     1  UNL1        0.0197
      2 C         142.1472  138.6095  163.1225 C.3     1  UNL1        0.0187
      3 C         141.1112  137.5377  163.2892 C.3     1  UNL1        0.0722
      4 N         139.6540  137.8924  163.2617 N.3     1  UNL1       -0.2712
      5 C         138.9403  138.0304  161.9496 C.3     1  UNL1        0.0896
      6 C         138.9105  138.1091  164.5463 C.3     1  UNL1        0.0768
      7 C         138.4021  139.4760  164.8972 C.3     1  UNL1        0.0438
      8 C         140.5680  141.9652  167.9571 C.ar    1  UNL1        0.1724
      9 C         140.1670  142.5713  166.6449 C.ar    1  UNL1        0.0397
     10 C         139.4450  141.7415  165.6250 C.ar    1  UNL1       -0.0009
     11 C         139.1241  140.3057  165.9172 C.ar    1  UNL1       -0.0176
     12 C         139.5251  139.6997  167.2294 C.ar    1  UNL1        0.0358
     13 C         140.2471  140.5294  168.2493 C.ar    1  UNL1        0.1721
     14 C         140.5316  143.7827  169.8133 C.3     1  UNL1        0.2526
     15 O         141.2899  142.7950  168.9771 O.3     1  UNL1       -0.4684
     16 O         140.6481  139.9233  169.5615 O.3     1  UNL1       -0.4684
     17 C         142.0627  139.4746  169.7793 C.3     1  UNL1        0.2526
     18 C         142.8910  140.8931  164.1136 C.3     1  UNL1        0.0981
     19 C         142.6860  141.9064  163.0268 C.ar    1  UNL1       -0.0065
     20 C         143.2218  141.6481  161.6498 C.ar    1  UNL1        0.0000
     21 C         143.0168  142.6615  160.5630 C.ar    1  UNL1        0.0398
     22 C         142.2761  143.9331  160.8532 C.ar    1  UNL1        0.1724
     23 C         141.7403  144.1914  162.2302 C.ar    1  UNL1        0.1721
     24 C         141.9453  143.1780  163.3170 C.ar    1  UNL1        0.0367
     25 O         142.0711  144.9464  159.7664 O.3     1  UNL1       -0.4684
     26 C         140.8397  144.8909  158.9117 C.3     1  UNL1        0.2526
     27 O         140.9995  145.4630  162.5204 O.3     1  UNL1       -0.4684
     28 C         139.5135  145.5263  162.3267 C.3     1  UNL1        0.2526
     29 C         143.9518  141.7611  164.7229 C.3     1  UNL1        0.0169
     30 C         143.6559  142.5456  165.9667 C.3     1  UNL1        0.0014
     31 C         145.3084  141.8446  164.0883 C.3     1  UNL1        0.0014
     32 C         143.0959  139.8797  165.2004 C.1     1  UNL1        0.0752
     33 N         143.3009  138.8664  166.2872 N.1     1  UNL1       -0.1956
@<TRIPOS>BOND
     1    14    15    1
     2    15     8    1
     3     8     9   ar
     4     9    10   ar
     5    10    11   ar
     6    11     7    1
     7     7     6    1
     8     6     4    1
     9     4     5    1
    10     4     3    1
    11     3     2    1
    12     2     1    1
    13     1    18    1
    14    18    32    1
    15    32    33    3
    16    18    19    1
    17    19    20   ar
    18    20    21   ar
    19    21    22   ar
    20    22    25    1
    21    25    26    1
    22    22    23   ar
    23    23    27    1
    24    27    28    1
    25    23    24   ar
    26    18    29    1
    27    29    30    1
    28    29    31    1
    29    11    12   ar
    30    12    13   ar
    31    13    16    1
    32    16    17    1
    33    13     8   ar
    34    24    19   ar
@<TRIPOS>MOLECULE
*****
 33 34 0 0 0
SMALL
GASTEIGER

@<TRIPOS>ATOM
      1 C         139.9145  141.4948  163.7998 C.3     1  UNL1        0.0197
      2 C         138.7698  140.6574  164.2880 C.3     1  UNL1        0.0187
      3 C         138.5936  139.2576  163.7784 C.3     1  UNL1        0.0722
      4 N         139.0379  138.0938  164.6138 N.3     1  UNL1       -0.2712
      5 C         138.3707  137.8160  165.9283 C.3     1  UNL1        0.0896
      6 C         140.1494  137.2077  164.1349 C.3     1  UNL1        0.0768
      7 C         141.5388  137.3922  164.6691 C.3     1  UNL1        0.0438
      8 C         144.3106  140.3719  162.7487 C.ar    1  UNL1        0.1724
      9 C         144.6103  139.8447  164.1206 C.ar    1  UNL1        0.0397
     10 C         143.6863  138.8515  164.7607 C.ar    1  UNL1       -0.0009
     11 C         142.4627  138.3854  164.0290 C.ar    1  UNL1       -0.0176
     12 C         142.1630  138.9126  162.6571 C.ar    1  UNL1        0.0358
     13 C         143.0870  139.9059  162.0169 C.ar    1  UNL1        0.1721
     14 C         144.9997  142.8352  162.2930 C.3     1  UNL1        0.2526
     15 O         145.2345  141.3652  162.1085 O.3     1  UNL1       -0.4684
     16 O         142.7872  140.4331  160.6449 O.3     1  UNL1       -0.4684
     17 C         141.3790  140.4225  160.1285 C.3     1  UNL1        0.2526
     18 C         139.9310  142.9708  164.0661 C.3     1  UNL1        0.0981
     19 C         140.7712  142.7411  165.2873 C.ar    1  UNL1       -0.0065
     20 C         142.2309  142.4267  165.1451 C.ar    1  UNL1        0.0000
     21 C         143.0711  142.1969  166.3663 C.ar    1  UNL1        0.0398
     22 C         142.4515  142.2816  167.7297 C.ar    1  UNL1        0.1724
     23 C         140.9918  142.5961  167.8719 C.ar    1  UNL1        0.1721
     24 C         140.1516  142.8258  166.6507 C.ar    1  UNL1        0.0367
     25 O         143.2917  142.0519  168.9509 O.3     1  UNL1       -0.4684
     26 C         143.0933  140.8150  169.7759 C.3     1  UNL1        0.2526
     27 O         140.3721  142.6808  169.2353 O.3     1  UNL1       -0.4684
     28 C         140.3823  143.9803  169.9843 C.3     1  UNL1        0.2526
     29 C         139.9476  144.4469  164.3323 C.3     1  UNL1        0.0169
     30 C         138.8516  145.0755  165.1408 C.3     1  UNL1        0.0014
     31 C         141.0602  145.2944  163.7902 C.3     1  UNL1        0.0014
     32 C         139.0909  143.2006  162.8448 C.1     1  UNL1        0.0752
     33 N         138.2507  143.4303  161.6236 N.1     1  UNL1       -0.1956
@<TRIPOS>BOND
     1    14    15    1
     2    15     8    1
     3     8     9   ar
     4     9    10   ar
     5    10    11   ar
     6    11     7    1
     7     7     6    1
     8     6     4    1
     9     4     5    1
    10     4     3    1
    11     3     2    1
    12     2     1    1
    13     1    18    1
    14    18    32    1
    15    32    33    3
    16    18    19    1
    17    19    20   ar
    18    20    21   ar
    19    21    22   ar
    20    22    25    1
    21    25    26    1
    22    22    23   ar
    23    23    27    1
    24    27    28    1
    25    23    24   ar
    26    18    29    1
    27    29    30    1
    28    29    31    1
    29    11    12   ar
    30    12    13   ar
    31    13    16    1
    32    16    17    1
    33    13     8   ar
    34    24    19   ar
