@<TRIPOS>MOLECULE
*****
 30 34 0 0 0
SMALL
GASTEIGER

@<TRIPOS>ATOM
      1 C         140.8385  140.7337  166.5328 C.2     1  UNL1        0.3756
      2 N         140.7457  141.2342  165.1218 N.2     1  UNL1       -0.0230
      3 C         140.1013  140.1638  164.2917 C.2     1  UNL1        0.3133
      4 C         139.7532  140.0971  162.8342 C.2     1  UNL1        0.3703
      5 N         139.0997  138.8684  162.2746 N.2     1  UNL1       -0.0367
      6 C         138.7942  137.7064  163.1726 C.2     1  UNL1        0.2179
      7 C         139.1422  137.7731  164.6301 C.3     1  UNL1        0.1552
      8 C         139.7958  139.0018  165.1897 C.2     1  UNL1        0.2294
      9 N         140.2514  139.3540  166.5747 N.2     1  UNL1       -0.0343
     10 F         143.1516  143.7253  171.1912 F       1  UNL1       -0.2018
     11 C         142.5733  142.9774  170.0266 C.ar    1  UNL1        0.1674
     12 C         143.3293  141.8324  169.4205 C.ar    1  UNL1        0.0322
     13 C         142.7511  141.0845  168.2559 C.ar    1  UNL1        0.0101
     14 C         141.4168  141.4816  167.6974 C.ar    1  UNL1        0.0908
     15 C         140.6607  142.6266  168.3035 C.ar    1  UNL1        0.0396
     16 C         141.2390  143.3745  169.4681 C.ar    1  UNL1        0.1676
     17 F         140.4829  144.5195  170.0742 F       1  UNL1       -0.2018
     18 N         140.0587  141.2592  161.9362 N.pl3   1  UNL1       -0.1872
     19 C         139.2119  142.4958  161.9956 C.3     1  UNL1        0.2025
     20 C         139.5174  143.6579  161.0976 C.3     1  UNL1        0.0523
     21 C         140.6698  143.5833  160.1403 C.3     1  UNL1        0.0242
     22 C         141.5167  142.3466  160.0810 C.3     1  UNL1        0.0523
     23 C         141.2112  141.1846  160.9790 C.3     1  UNL1        0.2025
     24 C         140.9754  144.7453  159.2424 C.3     1  UNL1        0.0725
     25 N         140.1969  144.9386  157.9749 N.3     1  UNL1       -0.2685
     26 C         140.1339  146.2926  157.3325 C.3     1  UNL1        0.1046
     27 C         139.3554  146.4859  156.0649 C.3     1  UNL1        0.1595
     28 O         138.6400  145.3251  155.4398 O.3     1  UNL1       -0.3508
     29 C         138.7031  143.9711  156.0821 C.3     1  UNL1        0.1595
     30 C         139.4815  143.7778  157.3497 C.3     1  UNL1        0.1046
@<TRIPOS>BOND
     1    10    11    1
     2    11    12   ar
     3    12    13   ar
     4    13    14   ar
     5    14     1    1
     6     1     2    2
     7     2     3    1
     8     3     4    2
     9     4    18    1
    10    18    19    1
    11    19    20    1
    12    20    21    1
    13    21    24    1
    14    24    25    1
    15    25    26    1
    16    26    27    1
    17    27    28    1
    18    28    29    1
    19    29    30    1
    20    21    22    1
    21    22    23    1
    22     4     5    1
    23     5     6    2
    24     6     7    1
    25     7     8    1
    26     8     9    2
    27    14    15   ar
    28    15    16   ar
    29    16    17    1
    30    16    11   ar
    31     9     1    1
    32     8     3    1
    33    23    18    1
    34    30    25    1
@<TRIPOS>MOLECULE
*****
 30 34 0 0 0
SMALL
GASTEIGER

@<TRIPOS>ATOM
      1 C         141.0149  140.5774  166.4979 C.2     1  UNL1        0.3756
      2 N         141.4643  140.7255  165.0745 N.2     1  UNL1       -0.0230
      3 C         140.6899  139.7488  164.2399 C.2     1  UNL1        0.3133
      4 C         140.7099  139.4469  162.7707 C.2     1  UNL1        0.3703
      5 N         139.8020  138.3933  162.2092 N.2     1  UNL1       -0.0367
      6 C         138.8740  137.6416  163.1167 C.2     1  UNL1        0.2179
      7 C         138.8540  137.9435  164.5859 C.3     1  UNL1        0.1552
      8 C         139.7619  138.9971  165.1475 C.2     1  UNL1        0.2294
      9 N         139.9627  139.5092  166.5430 N.2     1  UNL1       -0.0343
     10 F         143.0654  143.7079  171.1879 F       1  UNL1       -0.2018
     11 C         142.5527  142.9253  170.0153 C.ar    1  UNL1        0.1674
     12 C         143.3499  141.7753  169.4749 C.ar    1  UNL1        0.0322
     13 C         142.8373  140.9927  168.3024 C.ar    1  UNL1        0.0101
     14 C         141.5275  141.3600  167.6704 C.ar    1  UNL1        0.0908
     15 C         140.7303  142.5100  168.2109 C.ar    1  UNL1        0.0396
     16 C         141.2429  143.2926  169.3833 C.ar    1  UNL1        0.1676
     17 F         140.4457  144.4425  169.9238 F       1  UNL1       -0.2018
     18 N         141.6380  140.1987  161.8632 N.pl3   1  UNL1       -0.1872
     19 C         143.1202  139.9960  161.9714 C.3     1  UNL1        0.2025
     20 C         144.0483  140.7478  161.0638 C.3     1  UNL1        0.0523
     21 C         143.4940  141.7022  160.0480 C.3     1  UNL1        0.0242
     22 C         142.0116  141.9049  159.9399 C.3     1  UNL1        0.0523
     23 C         141.0837  141.1532  160.8474 C.3     1  UNL1        0.2025
     24 C         144.4220  142.4540  159.1405 C.3     1  UNL1        0.0725
     25 N         144.9233  141.8114  157.8813 N.3     1  UNL1       -0.2685
     26 C         144.2370  140.5942  157.3358 C.3     1  UNL1        0.1046
     27 C         144.7384  139.9515  156.0765 C.3     1  UNL1        0.1595
     28 O         145.9260  140.5261  155.3628 O.3     1  UNL1       -0.3508
     29 C         146.6122  141.7433  155.9082 C.3     1  UNL1        0.1595
     30 C         146.1109  142.3859  157.1674 C.3     1  UNL1        0.1046
@<TRIPOS>BOND
     1    10    11    1
     2    11    12   ar
     3    12    13   ar
     4    13    14   ar
     5    14     1    1
     6     1     2    2
     7     2     3    1
     8     3     4    2
     9     4    18    1
    10    18    19    1
    11    19    20    1
    12    20    21    1
    13    21    24    1
    14    24    25    1
    15    25    26    1
    16    26    27    1
    17    27    28    1
    18    28    29    1
    19    29    30    1
    20    21    22    1
    21    22    23    1
    22     4     5    1
    23     5     6    2
    24     6     7    1
    25     7     8    1
    26     8     9    2
    27    14    15   ar
    28    15    16   ar
    29    16    17    1
    30    16    11   ar
    31     9     1    1
    32     8     3    1
    33    23    18    1
    34    30    25    1
@<TRIPOS>MOLECULE
*****
 30 34 0 0 0
SMALL
GASTEIGER

@<TRIPOS>ATOM
      1 C         143.6081  135.2348  156.4599 C.2     1  UNL1        0.3756
      2 N         142.8411  135.9408  157.5384 N.2     1  UNL1       -0.0230
      3 C         142.8590  137.4096  157.2342 C.2     1  UNL1        0.3133
      4 C         142.2673  138.5894  157.9469 C.2     1  UNL1        0.3703
      5 N         142.4537  139.9709  157.3932 N.2     1  UNL1       -0.0367
      6 C         143.2317  140.1726  156.1267 C.2     1  UNL1        0.2179
      7 C         143.8234  138.9928  155.4140 C.3     1  UNL1        0.1552
      8 C         143.6370  137.6113  155.9678 C.2     1  UNL1        0.2294
      9 N         144.1000  136.2672  155.4892 N.2     1  UNL1       -0.0343
     10 F         144.5442  129.3196  156.0929 F       1  UNL1       -0.2018
     11 C         144.3102  130.7984  156.1846 C.ar    1  UNL1        0.1674
     12 C         143.6162  131.5187  155.0668 C.ar    1  UNL1        0.0322
     13 C         143.3822  132.9975  155.1585 C.ar    1  UNL1        0.0101
     14 C         143.8421  133.7560  156.3681 C.ar    1  UNL1        0.0908
     15 C         144.5361  133.0357  157.4860 C.ar    1  UNL1        0.0396
     16 C         144.7701  131.5569  157.3942 C.ar    1  UNL1        0.1676
     17 F         145.4640  130.8366  158.5121 F       1  UNL1       -0.2018
     18 N         141.4892  138.3877  159.2134 N.pl3   1  UNL1       -0.1872
     19 C         142.2039  138.0382  160.4851 C.3     1  UNL1        0.2025
     20 C         141.4258  137.8365  161.7516 C.3     1  UNL1        0.0523
     21 C         139.9331  137.9842  161.7464 C.3     1  UNL1        0.0242
     22 C         139.2185  138.3338  160.4746 C.3     1  UNL1        0.0523
     23 C         139.9965  138.5355  159.2082 C.3     1  UNL1        0.2025
     24 C         139.1550  137.7825  163.0128 C.3     1  UNL1        0.0725
     25 N         139.1802  138.8325  164.0837 N.3     1  UNL1       -0.2685
     26 C         138.9401  138.4505  165.5143 C.3     1  UNL1        0.1046
     27 C         138.9652  139.5006  166.5853 C.3     1  UNL1        0.1595
     28 O         139.2305  140.9324  166.2256 O.3     1  UNL1       -0.3508
     29 C         139.4706  141.3144  164.7951 C.3     1  UNL1        0.1595
     30 C         139.4454  140.2644  163.7241 C.3     1  UNL1        0.1046
@<TRIPOS>BOND
     1    10    11    1
     2    11    12   ar
     3    12    13   ar
     4    13    14   ar
     5    14     1    1
     6     1     2    2
     7     2     3    1
     8     3     4    2
     9     4    18    1
    10    18    19    1
    11    19    20    1
    12    20    21    1
    13    21    24    1
    14    24    25    1
    15    25    26    1
    16    26    27    1
    17    27    28    1
    18    28    29    1
    19    29    30    1
    20    21    22    1
    21    22    23    1
    22     4     5    1
    23     5     6    2
    24     6     7    1
    25     7     8    1
    26     8     9    2
    27    14    15   ar
    28    15    16   ar
    29    16    17    1
    30    16    11   ar
    31     9     1    1
    32     8     3    1
    33    23    18    1
    34    30    25    1
@<TRIPOS>MOLECULE
*****
 30 34 0 0 0
SMALL
GASTEIGER

@<TRIPOS>ATOM
      1 C         143.3464  134.8608  156.1423 C.2     1  UNL1        0.3756
      2 N         142.6648  135.6891  157.1908 N.2     1  UNL1       -0.0230
      3 C         143.0239  137.1259  156.9522 C.2     1  UNL1        0.3133
      4 C         142.6448  138.3876  157.6695 C.2     1  UNL1        0.3703
      5 N         143.1692  139.7089  157.1909 N.2     1  UNL1       -0.0367
      6 C         144.0727  139.7685  155.9951 C.2     1  UNL1        0.2179
      7 C         144.4518  138.5068  155.2778 C.3     1  UNL1        0.1552
      8 C         143.9274  137.1855  155.7564 C.2     1  UNL1        0.2294
      9 N         144.1267  135.7856  155.2558 N.2     1  UNL1       -0.0343
     10 F         143.0106  128.8956  155.5911 F       1  UNL1       -0.2018
     11 C         143.0945  130.3869  155.7289 C.ar    1  UNL1        0.1674
     12 C         144.4018  131.0357  156.0753 C.ar    1  UNL1        0.0322
     13 C         144.4858  132.5269  156.2132 C.ar    1  UNL1        0.0101
     14 C         143.2624  133.3694  156.0045 C.ar    1  UNL1        0.0908
     15 C         141.9551  132.7207  155.6580 C.ar    1  UNL1        0.0396
     16 C         141.8712  131.2294  155.5202 C.ar    1  UNL1        0.1676
     17 F         140.5638  130.5807  155.1738 F       1  UNL1       -0.2018
     18 N         141.7412  138.3279  158.8654 N.pl3   1  UNL1       -0.1872
     19 C         140.2607  138.4992  158.6961 C.3     1  UNL1        0.2025
     20 C         139.3572  138.4396  159.8920 C.3     1  UNL1        0.0523
     21 C         139.9342  138.2086  161.2571 C.3     1  UNL1        0.0242
     22 C         141.4148  138.0373  161.4264 C.3     1  UNL1        0.0523
     23 C         142.3183  138.0969  160.2305 C.3     1  UNL1        0.2025
     24 C         139.0307  138.1489  162.4530 C.3     1  UNL1        0.0725
     25 N         138.6482  139.4110  163.1677 N.3     1  UNL1       -0.2685
     26 C         139.1863  139.6883  164.5401 C.3     1  UNL1        0.1046
     27 C         138.8038  140.9505  165.2547 C.3     1  UNL1        0.1595
     28 O         137.8832  141.9353  164.5970 O.3     1  UNL1       -0.3508
     29 C         137.3451  141.6580  163.2246 C.3     1  UNL1        0.1595
     30 C         137.7276  140.3959  162.5099 C.3     1  UNL1        0.1046
@<TRIPOS>BOND
     1    10    11    1
     2    11    12   ar
     3    12    13   ar
     4    13    14   ar
     5    14     1    1
     6     1     2    2
     7     2     3    1
     8     3     4    2
     9     4    18    1
    10    18    19    1
    11    19    20    1
    12    20    21    1
    13    21    24    1
    14    24    25    1
    15    25    26    1
    16    26    27    1
    17    27    28    1
    18    28    29    1
    19    29    30    1
    20    21    22    1
    21    22    23    1
    22     4     5    1
    23     5     6    2
    24     6     7    1
    25     7     8    1
    26     8     9    2
    27    14    15   ar
    28    15    16   ar
    29    16    17    1
    30    16    11   ar
    31     9     1    1
    32     8     3    1
    33    23    18    1
    34    30    25    1
@<TRIPOS>MOLECULE
*****
 30 34 0 0 0
SMALL
GASTEIGER

@<TRIPOS>ATOM
      1 C         141.5004  139.9632  164.9427 C.2     1  UNL1        0.3756
      2 N         141.7555  139.8397  163.4698 N.2     1  UNL1       -0.0230
      3 C         143.0791  140.4803  163.1733 C.2     1  UNL1        0.3133
      4 C         143.8445  140.6577  161.8955 C.2     1  UNL1        0.3703
      5 N         145.1727  141.3545  161.9074 N.2     1  UNL1       -0.0367
      6 C         145.7356  141.8739  163.1971 C.2     1  UNL1        0.2179
      7 C         144.9702  141.6964  164.4749 C.3     1  UNL1        0.1552
      8 C         143.6419  140.9996  164.4630 C.2     1  UNL1        0.2294
      9 N         142.6663  140.6801  165.5566 N.2     1  UNL1       -0.0343
     10 F         136.6653  137.9443  167.8662 F       1  UNL1       -0.2018
     11 C         137.8741  138.4490  167.1353 C.ar    1  UNL1        0.1674
     12 C         138.2172  137.8981  165.7830 C.ar    1  UNL1        0.0322
     13 C         139.4259  138.4028  165.0521 C.ar    1  UNL1        0.0101
     14 C         140.2916  139.4584  165.6736 C.ar    1  UNL1        0.0908
     15 C         139.9485  140.0094  167.0259 C.ar    1  UNL1        0.0396
     16 C         138.7398  139.5047  167.7568 C.ar    1  UNL1        0.1676
     17 F         138.3967  140.0556  169.1091 F       1  UNL1       -0.2018
     18 N         143.2815  140.1383  160.6058 N.pl3   1  UNL1       -0.1872
     19 C         143.0829  141.0682  159.4457 C.3     1  UNL1        0.2025
     20 C         142.5199  140.5488  158.1559 C.3     1  UNL1        0.0523
     21 C         142.1557  139.0995  158.0263 C.3     1  UNL1        0.0242
     22 C         142.3544  138.1696  159.1865 C.3     1  UNL1        0.0523
     23 C         142.9173  138.6890  160.4761 C.3     1  UNL1        0.2025
     24 C         141.5928  138.5800  156.7367 C.3     1  UNL1        0.0725
     25 N         142.0891  137.2828  156.1703 N.3     1  UNL1       -0.2685
     26 C         143.5601  137.0635  155.9753 C.3     1  UNL1        0.1046
     27 C         144.0564  135.7662  155.4088 C.3     1  UNL1        0.1595
     28 O         143.0817  134.6883  155.0374 O.3     1  UNL1       -0.3508
     29 C         141.6107  134.9076  155.2324 C.3     1  UNL1        0.1595
     30 C         141.1144  136.2048  155.7988 C.3     1  UNL1        0.1046
@<TRIPOS>BOND
     1    10    11    1
     2    11    12   ar
     3    12    13   ar
     4    13    14   ar
     5    14     1    1
     6     1     2    2
     7     2     3    1
     8     3     4    2
     9     4    18    1
    10    18    19    1
    11    19    20    1
    12    20    21    1
    13    21    24    1
    14    24    25    1
    15    25    26    1
    16    26    27    1
    17    27    28    1
    18    28    29    1
    19    29    30    1
    20    21    22    1
    21    22    23    1
    22     4     5    1
    23     5     6    2
    24     6     7    1
    25     7     8    1
    26     8     9    2
    27    14    15   ar
    28    15    16   ar
    29    16    17    1
    30    16    11   ar
    31     9     1    1
    32     8     3    1
    33    23    18    1
    34    30    25    1
@<TRIPOS>MOLECULE
*****
 30 34 0 0 0
SMALL
GASTEIGER

@<TRIPOS>ATOM
      1 C         140.9040  142.0705  166.4100 C.2     1  UNL1        0.3756
      2 N         141.0478  141.5797  164.9999 N.2     1  UNL1       -0.0230
      3 C         140.2147  142.4596  164.1156 C.2     1  UNL1        0.3133
      4 C         139.9709  142.4523  162.6356 C.2     1  UNL1        0.3703
      5 N         139.0684  143.4797  162.0191 N.2     1  UNL1       -0.0367
      6 C         138.4098  144.5142  162.8827 C.2     1  UNL1        0.2179
      7 C         138.6536  144.5215  164.3627 C.3     1  UNL1        0.1552
      8 C         139.5561  143.4942  164.9792 C.2     1  UNL1        0.2294
      9 N         139.9821  143.2537  166.3972 N.2     1  UNL1       -0.0343
     10 F         143.5514  139.7148  171.2517 F       1  UNL1       -0.2018
     11 C         142.8895  140.3037  170.0412 C.ar    1  UNL1        0.1674
     12 C         141.7459  139.5859  169.3879 C.ar    1  UNL1        0.0322
     13 C         141.0840  140.1748  168.1775 C.ar    1  UNL1        0.0101
     14 C         141.5658  141.4815  167.6204 C.ar    1  UNL1        0.0908
     15 C         142.7095  142.1993  168.2738 C.ar    1  UNL1        0.0396
     16 C         143.3713  141.6104  169.4842 C.ar    1  UNL1        0.1676
     17 F         144.5150  142.3282  170.1375 F       1  UNL1       -0.2018
     18 N         140.6296  141.4177  161.7720 N.pl3   1  UNL1       -0.1872
     19 C         141.5590  141.8395  160.6728 C.3     1  UNL1        0.2025
     20 C         142.2177  140.8048  159.8093 C.3     1  UNL1        0.0523
     21 C         141.9469  139.3484  160.0449 C.3     1  UNL1        0.0242
     22 C         141.0174  138.9266  161.1441 C.3     1  UNL1        0.0523
     23 C         140.3587  139.9613  162.0076 C.3     1  UNL1        0.2025
     24 C         142.6055  138.3138  159.1814 C.3     1  UNL1        0.0725
     25 N         141.8666  137.7311  158.0133 N.3     1  UNL1       -0.2685
     26 C         140.4492  138.1404  157.7425 C.3     1  UNL1        0.1046
     27 C         139.7103  137.5577  156.5744 C.3     1  UNL1        0.1595
     28 O         140.3889  136.5656  155.6771 O.3     1  UNL1       -0.3508
     29 C         141.8063  136.1562  155.9478 C.3     1  UNL1        0.1595
     30 C         142.5452  136.7389  157.1159 C.3     1  UNL1        0.1046
@<TRIPOS>BOND
     1    10    11    1
     2    11    12   ar
     3    12    13   ar
     4    13    14   ar
     5    14     1    1
     6     1     2    2
     7     2     3    1
     8     3     4    2
     9     4    18    1
    10    18    19    1
    11    19    20    1
    12    20    21    1
    13    21    24    1
    14    24    25    1
    15    25    26    1
    16    26    27    1
    17    27    28    1
    18    28    29    1
    19    29    30    1
    20    21    22    1
    21    22    23    1
    22     4     5    1
    23     5     6    2
    24     6     7    1
    25     7     8    1
    26     8     9    2
    27    14    15   ar
    28    15    16   ar
    29    16    17    1
    30    16    11   ar
    31     9     1    1
    32     8     3    1
    33    23    18    1
    34    30    25    1
@<TRIPOS>MOLECULE
*****
 30 34 0 0 0
SMALL
GASTEIGER

@<TRIPOS>ATOM
      1 C         140.8564  141.0124  164.4753 C.2     1  UNL1        0.3756
      2 N         141.3195  141.0489  163.0491 N.2     1  UNL1       -0.0230
      3 C         142.1617  142.2768  162.8666 C.2     1  UNL1        0.3133
      4 C         142.8837  142.8305  161.6741 C.2     1  UNL1        0.3703
      5 N         143.6631  144.1064  161.7950 N.2     1  UNL1       -0.0367
      6 C         143.7204  144.8286  163.1084 C.2     1  UNL1        0.2179
      7 C         142.9984  144.2749  164.3009 C.3     1  UNL1        0.1552
      8 C         142.2190  142.9990  164.1800 C.2     1  UNL1        0.2294
      9 N         141.4124  142.2176  165.1742 N.2     1  UNL1       -0.0343
     10 F         137.3890  136.7872  166.9503 F       1  UNL1       -0.2018
     11 C         138.2559  137.8435  166.3316 C.ar    1  UNL1        0.1674
     12 C         138.8520  137.6234  164.9728 C.ar    1  UNL1        0.0322
     13 C         139.7189  138.6797  164.3541 C.ar    1  UNL1        0.0101
     14 C         139.9896  139.9560  165.0941 C.ar    1  UNL1        0.0908
     15 C         139.3934  140.1761  166.4528 C.ar    1  UNL1        0.0396
     16 C         138.5266  139.1199  167.0716 C.ar    1  UNL1        0.1676
     17 F         137.9305  139.3399  168.4303 F       1  UNL1       -0.2018
     18 N         142.8264  142.1082  160.3606 N.pl3   1  UNL1       -0.1872
     19 C         144.0760  141.5259  159.7697 C.3     1  UNL1        0.2025
     20 C         144.0187  140.8036  158.4562 C.3     1  UNL1        0.0523
     21 C         142.7116  140.6637  157.7338 C.3     1  UNL1        0.0242
     22 C         141.4619  141.2460  158.3247 C.3     1  UNL1        0.0523
     23 C         141.5193  141.9683  159.6381 C.3     1  UNL1        0.2025
     24 C         142.6542  139.9415  156.4204 C.3     1  UNL1        0.0725
     25 N         143.0461  138.4957  156.3418 N.3     1  UNL1       -0.2685
     26 C         144.0748  138.0506  155.3450 C.3     1  UNL1        0.1046
     27 C         144.4667  136.6048  155.2664 C.3     1  UNL1        0.1595
     28 O         143.8298  135.6042  156.1846 O.3     1  UNL1       -0.3508
     29 C         142.8011  136.0493  157.1813 C.3     1  UNL1        0.1595
     30 C         142.4092  137.4950  157.2599 C.3     1  UNL1        0.1046
@<TRIPOS>BOND
     1    10    11    1
     2    11    12   ar
     3    12    13   ar
     4    13    14   ar
     5    14     1    1
     6     1     2    2
     7     2     3    1
     8     3     4    2
     9     4    18    1
    10    18    19    1
    11    19    20    1
    12    20    21    1
    13    21    24    1
    14    24    25    1
    15    25    26    1
    16    26    27    1
    17    27    28    1
    18    28    29    1
    19    29    30    1
    20    21    22    1
    21    22    23    1
    22     4     5    1
    23     5     6    2
    24     6     7    1
    25     7     8    1
    26     8     9    2
    27    14    15   ar
    28    15    16   ar
    29    16    17    1
    30    16    11   ar
    31     9     1    1
    32     8     3    1
    33    23    18    1
    34    30    25    1
@<TRIPOS>MOLECULE
*****
 30 34 0 0 0
SMALL
GASTEIGER

@<TRIPOS>ATOM
      1 C         139.6931  140.3012  165.9233 C.2     1  UNL1        0.3756
      2 N         139.8970  141.0168  164.6209 N.2     1  UNL1       -0.0230
      3 C         139.5538  140.0673  163.5116 C.2     1  UNL1        0.3133
      4 C         139.5664  140.2204  162.0195 C.2     1  UNL1        0.3703
      5 N         139.1629  139.0711  161.1441 N.2     1  UNL1       -0.0367
      6 C         138.7469  137.7687  161.7609 C.2     1  UNL1        0.2179
      7 C         138.7343  137.6155  163.2530 C.3     1  UNL1        0.1552
      8 C         139.1377  138.7648  164.1284 C.2     1  UNL1        0.2294
      9 N         139.2238  138.9094  165.6189 N.2     1  UNL1       -0.0343
     10 F         140.5957  142.6016  171.3908 F       1  UNL1       -0.2018
     11 C         140.3701  142.0265  170.0239 C.ar    1  UNL1        0.1674
     12 C         140.5892  142.8760  168.8073 C.ar    1  UNL1        0.0322
     13 C         140.3636  142.3009  167.4404 C.ar    1  UNL1        0.0101
     14 C         139.9188  140.8763  167.2902 C.ar    1  UNL1        0.0908
     15 C         139.6996  140.0268  168.5069 C.ar    1  UNL1        0.0396
     16 C         139.9253  140.6019  169.8737 C.ar    1  UNL1        0.1676
     17 F         139.7061  139.7524  171.0904 F       1  UNL1       -0.2018
     18 N         139.9825  141.5230  161.4027 N.pl3   1  UNL1       -0.1872
     19 C         139.0046  142.3104  160.5819 C.3     1  UNL1        0.2025
     20 C         139.4207  143.6129  159.9651 C.3     1  UNL1        0.0523
     21 C         140.8147  144.1280  160.1692 C.3     1  UNL1        0.0242
     22 C         141.7925  143.3405  160.9901 C.3     1  UNL1        0.0523
     23 C         141.3764  142.0380  161.6068 C.3     1  UNL1        0.2025
     24 C         141.2308  145.4304  159.5525 C.3     1  UNL1        0.0725
     25 N         141.1973  145.5993  158.0624 N.3     1  UNL1       -0.2685
     26 C         142.2817  145.0019  157.2154 C.3     1  UNL1        0.1046
     27 C         142.2482  145.1708  155.7253 C.3     1  UNL1        0.1595
     28 O         141.1304  145.9369  155.0822 O.3     1  UNL1       -0.3508
     29 C         140.0461  146.5342  155.9293 C.3     1  UNL1        0.1595
     30 C         140.0795  146.3654  157.4193 C.3     1  UNL1        0.1046
@<TRIPOS>BOND
     1    10    11    1
     2    11    12   ar
     3    12    13   ar
     4    13    14   ar
     5    14     1    1
     6     1     2    2
     7     2     3    1
     8     3     4    2
     9     4    18    1
    10    18    19    1
    11    19    20    1
    12    20    21    1
    13    21    24    1
    14    24    25    1
    15    25    26    1
    16    26    27    1
    17    27    28    1
    18    28    29    1
    19    29    30    1
    20    21    22    1
    21    22    23    1
    22     4     5    1
    23     5     6    2
    24     6     7    1
    25     7     8    1
    26     8     9    2
    27    14    15   ar
    28    15    16   ar
    29    16    17    1
    30    16    11   ar
    31     9     1    1
    32     8     3    1
    33    23    18    1
    34    30    25    1
@<TRIPOS>MOLECULE
*****
 30 34 0 0 0
SMALL
GASTEIGER

@<TRIPOS>ATOM
      1 C         142.6447  135.4966  156.7032 C.2     1  UNL1        0.3756
      2 N         142.8381  136.3748  157.9038 N.2     1  UNL1       -0.0230
      3 C         141.9984  137.6040  157.7190 C.2     1  UNL1        0.3133
      4 C         141.7904  138.8159  158.5781 C.2     1  UNL1        0.3703
      5 N         140.8701  139.9092  158.1226 N.2     1  UNL1       -0.0367
      6 C         140.1576  139.7906  156.8079 C.2     1  UNL1        0.2179
      7 C         140.3656  138.5787  155.9488 C.3     1  UNL1        0.1552
      8 C         141.2860  137.4854  156.4044 C.2     1  UNL1        0.2294
      9 N         141.6854  136.1830  155.7766 N.2     1  UNL1       -0.0343
     10 F         145.2504  130.1729  155.7713 F       1  UNL1       -0.2018
     11 C         144.5990  131.5039  156.0043 C.ar    1  UNL1        0.1674
     12 C         143.6869  132.0846  154.9648 C.ar    1  UNL1        0.0322
     13 C         143.0354  133.4155  155.1977 C.ar    1  UNL1        0.0101
     14 C         143.2961  134.1656  156.4702 C.ar    1  UNL1        0.0908
     15 C         144.2082  133.5848  157.5098 C.ar    1  UNL1        0.0396
     16 C         144.8597  132.2540  157.2769 C.ar    1  UNL1        0.1676
     17 F         145.7718  131.6732  158.3164 F       1  UNL1       -0.2018
     18 N         142.5029  138.9345  159.8928 N.pl3   1  UNL1       -0.1872
     19 C         143.5712  139.9713  160.0761 C.3     1  UNL1        0.2025
     20 C         144.2836  140.0899  161.3908 C.3     1  UNL1        0.0523
     21 C         143.9278  139.1716  162.5222 C.3     1  UNL1        0.0242
     22 C         142.8594  138.1346  162.3389 C.3     1  UNL1        0.0523
     23 C         142.1470  138.0161  161.0242 C.3     1  UNL1        0.2025
     24 C         144.6402  139.2901  163.8369 C.3     1  UNL1        0.0725
     25 N         143.8872  139.7164  165.0621 N.3     1  UNL1       -0.2685
     26 C         143.4827  141.1507  165.2327 C.3     1  UNL1        0.1046
     27 C         142.7298  141.5770  166.4580 C.3     1  UNL1        0.1595
     28 O         142.3813  140.5690  167.5127 O.3     1  UNL1       -0.3508
     29 C         142.7858  139.1347  167.3421 C.3     1  UNL1        0.1595
     30 C         143.5387  138.7084  166.1169 C.3     1  UNL1        0.1046
@<TRIPOS>BOND
     1    10    11    1
     2    11    12   ar
     3    12    13   ar
     4    13    14   ar
     5    14     1    1
     6     1     2    2
     7     2     3    1
     8     3     4    2
     9     4    18    1
    10    18    19    1
    11    19    20    1
    12    20    21    1
    13    21    24    1
    14    24    25    1
    15    25    26    1
    16    26    27    1
    17    27    28    1
    18    28    29    1
    19    29    30    1
    20    21    22    1
    21    22    23    1
    22     4     5    1
    23     5     6    2
    24     6     7    1
    25     7     8    1
    26     8     9    2
    27    14    15   ar
    28    15    16   ar
    29    16    17    1
    30    16    11   ar
    31     9     1    1
    32     8     3    1
    33    23    18    1
    34    30    25    1
