@<TRIPOS>MOLECULE
*****
 45 49 0 0 0
SMALL
GASTEIGER

@<TRIPOS>ATOM
      1 C         141.8338  143.0770  161.1436 C.ar    1  UNL1        0.1726
      2 C         142.0661  141.5989  161.2503 C.ar    1  UNL1        0.0443
      3 C         140.9070  140.6500  161.1728 C.ar    1  UNL1        0.0527
      4 C         141.1393  139.1719  161.2795 C.ar    1  UNL1        0.1364
      5 N         139.9802  138.2230  161.2020 N.ar    1  UNL1       -0.2089
      6 C         138.5888  138.7521  161.0177 C.ar    1  UNL1        0.2000
      7 N         138.3565  140.2302  160.9111 N.ar    1  UNL1       -0.2238
      8 C         139.5156  141.1791  160.9886 C.ar    1  UNL1        0.0890
      9 C         139.2833  142.6572  160.8819 C.ar    1  UNL1        0.0593
     10 C         140.4423  143.6061  160.9594 C.ar    1  UNL1        0.1737
     11 C         144.2239  143.6451  161.9891 C.3     1  UNL1        0.2526
     12 O         142.9929  144.0259  161.2212 O.3     1  UNL1       -0.4684
     13 N         142.5308  138.6428  161.4637 N.pl3   1  UNL1       -0.2837
     14 H         142.9895  138.1936  160.7173 H       1  UNL1        0.1550
     15 C         143.2234  138.7981  162.7851 C.ar    1  UNL1        0.1276
     16 C         142.8490  138.1079  164.0633 C.ar    1  UNL1        0.0507
     17 C         143.8062  138.5541  165.1285 C.ar    1  UNL1        0.0903
     18 N         144.7721  139.5200  164.5088 N.ar    1  UNL1       -0.1755
     19 N         144.4119  139.6707  163.0605 N.ar    1  UNL1       -0.2631
     20 H         144.8744  140.2421  162.4056 H       1  UNL1        0.1903
     21 C         143.7987  138.1120  166.5619 C.3     1  UNL1        0.1328
     22 C         143.0188  138.8874  167.5818 C.2     1  UNL1        0.2323
     23 O         143.1843  138.5846  169.0416 O.2     1  UNL1       -0.2744
     24 N         142.0733  139.9656  167.1420 N.am    1  UNL1       -0.2818
     25 H         141.9647  140.1643  166.1839 H       1  UNL1        0.1549
     26 C         141.2932  140.7411  168.1620 C.ar    1  UNL1        0.0804
     27 C         140.0349  140.1650  168.7405 C.ar    1  UNL1        0.0171
     28 C         139.2548  140.9405  169.7605 C.ar    1  UNL1        0.0037
     29 C         139.7332  142.2919  170.2019 C.ar    1  UNL1        0.0321
     30 C         140.9915  142.8679  169.6234 C.ar    1  UNL1        0.1686
     31 F         141.4699  144.2193  170.0648 F       1  UNL1       -0.2018
     32 C         141.7716  142.0924  168.6034 C.ar    1  UNL1        0.1807
     33 F         143.0300  142.6684  168.0249 F       1  UNL1       -0.2005
     34 O         140.2100  145.0841  160.8527 O.3     1  UNL1       -0.4723
     35 C         139.8821  145.8823  162.0797 C.3     1  UNL1        0.2070
     36 C         138.7942  145.4231  163.0046 C.3     1  UNL1        0.0646
     37 C         139.1444  144.7685  164.3080 C.3     1  UNL1        0.0760
     38 N         139.0825  143.2755  164.4379 N.3     1  UNL1       -0.2716
     39 C         137.8430  142.4343  164.3602 C.3     1  UNL1        0.0722
     40 C         138.2437  141.0004  164.5427 C.3     1  UNL1        0.0188
     41 C         139.7308  140.9553  164.7331 C.3     1  UNL1        0.0199
     42 C         140.2494  142.3614  164.6683 C.3     1  UNL1        0.0870
     43 C         141.6828  142.7798  164.8093 C.3     1  UNL1        0.1530
     44 O         142.7742  141.7531  164.7408 O.3     1  UNL1       -0.3806
     45 H         142.7041  141.1555  165.5016 H       1  UNL1        0.2105
@<TRIPOS>BOND
     1    11    12    1
     2    12     1    1
     3     1     2   ar
     4     2     3   ar
     5     3     4   ar
     6     4    13    1
     7    13    15    1
     8    15    16   ar
     9    16    17   ar
    10    17    21    1
    11    21    22    1
    12    22    23    2
    13    22    24   am
    14    24    26    1
    15    26    27   ar
    16    27    28   ar
    17    28    29   ar
    18    29    30   ar
    19    30    31    1
    20    30    32   ar
    21    32    33    1
    22    17    18   ar
    23    18    19   ar
    24     4     5   ar
    25     5     6   ar
    26     6     7   ar
    27     7     8   ar
    28     8     9   ar
    29     9    10   ar
    30    10    34    1
    31    34    35    1
    32    35    36    1
    33    36    37    1
    34    37    38    1
    35    38    39    1
    36    39    40    1
    37    40    41    1
    38    41    42    1
    39    42    43    1
    40    43    44    1
    41    10     1   ar
    42    42    38    1
    43     8     3   ar
    44    19    15   ar
    45    32    26   ar
    46    13    14    1
    47    24    25    1
    48    19    20    1
    49    44    45    1
@<TRIPOS>MOLECULE
*****
 45 49 0 0 0
SMALL
GASTEIGER

@<TRIPOS>ATOM
      1 C         138.8174  142.5504  160.9080 C.ar    1  UNL1        0.1726
      2 C         139.0507  141.0699  160.8474 C.ar    1  UNL1        0.0443
      3 C         140.2112  140.5247  160.0688 C.ar    1  UNL1        0.0527
      4 C         140.4444  139.0442  160.0082 C.ar    1  UNL1        0.1364
      5 N         141.6048  138.4990  159.2297 N.ar    1  UNL1       -0.2089
      6 C         142.5320  139.4343  158.5118 C.ar    1  UNL1        0.2000
      7 N         142.2987  140.9148  158.5723 N.ar    1  UNL1       -0.2238
      8 C         141.1383  141.4600  159.3509 C.ar    1  UNL1        0.0890
      9 C         140.9051  142.9405  159.4114 C.ar    1  UNL1        0.0593
     10 C         139.7447  143.4857  160.1900 C.ar    1  UNL1        0.1737
     11 C         137.6783  143.0631  163.1860 C.3     1  UNL1        0.2526
     12 O         137.6570  143.0956  161.6865 O.3     1  UNL1       -0.4684
     13 N         139.5171  138.1089  160.7263 N.pl3   1  UNL1       -0.2837
     14 H         138.8287  137.6161  160.2237 H       1  UNL1        0.1550
     15 C         139.6388  137.9244  162.2099 C.ar    1  UNL1        0.1276
     16 C         138.6229  138.3323  163.2353 C.ar    1  UNL1        0.0507
     17 C         139.1539  137.9596  164.5878 C.ar    1  UNL1        0.0903
     18 N         140.4981  137.3214  164.3982 N.ar    1  UNL1       -0.1755
     19 N         140.7977  137.2997  162.9286 N.ar    1  UNL1       -0.2631
     20 H         141.6121  136.9387  162.5094 H       1  UNL1        0.1903
     21 C         138.4622  138.1855  165.8995 C.3     1  UNL1        0.1328
     22 C         139.0615  139.1147  166.9131 C.2     1  UNL1        0.2323
     23 O         138.4088  139.2849  168.2529 O.2     1  UNL1       -0.2744
     24 N         140.3136  139.8736  166.5870 N.am    1  UNL1       -0.2818
     25 H         140.7420  139.7619  165.7076 H       1  UNL1        0.1549
     26 C         140.9130  140.8028  167.6006 C.ar    1  UNL1        0.0804
     27 C         140.3708  142.1927  167.7569 C.ar    1  UNL1        0.0171
     28 C         140.9702  143.1219  168.7705 C.ar    1  UNL1        0.0037
     29 C         142.1116  142.6612  169.6278 C.ar    1  UNL1        0.0321
     30 C         142.6536  141.2714  169.4715 C.ar    1  UNL1        0.1686
     31 F         143.7950  140.8107  170.3288 F       1  UNL1       -0.2018
     32 C         142.0543  140.3422  168.4579 C.ar    1  UNL1        0.1807
     33 F         142.5964  138.9523  168.3016 F       1  UNL1       -0.2005
     34 O         139.5114  144.9662  160.2505 O.3     1  UNL1       -0.4723
     35 C         140.1769  145.7874  161.3149 C.3     1  UNL1        0.2070
     36 C         140.8151  145.1132  162.4931 C.3     1  UNL1        0.0646
     37 C         142.1811  144.5077  162.3615 C.3     1  UNL1        0.0760
     38 N         142.8512  143.9013  163.5587 N.3     1  UNL1       -0.2716
     39 C         143.9358  144.5359  164.3777 C.3     1  UNL1        0.0722
     40 C         144.3093  143.5807  165.4723 C.3     1  UNL1        0.0188
     41 C         143.4555  142.3557  165.3297 C.3     1  UNL1        0.0199
     42 C         142.5543  142.5537  164.1470 C.3     1  UNL1        0.0870
     43 C         141.5353  141.5761  163.6415 C.3     1  UNL1        0.1530
     44 O         141.7304  140.1059  163.8658 O.3     1  UNL1       -0.3806
     45 H         142.5063  139.8032  163.3685 H       1  UNL1        0.2105
@<TRIPOS>BOND
     1    11    12    1
     2    12     1    1
     3     1     2   ar
     4     2     3   ar
     5     3     4   ar
     6     4    13    1
     7    13    15    1
     8    15    16   ar
     9    16    17   ar
    10    17    21    1
    11    21    22    1
    12    22    23    2
    13    22    24   am
    14    24    26    1
    15    26    27   ar
    16    27    28   ar
    17    28    29   ar
    18    29    30   ar
    19    30    31    1
    20    30    32   ar
    21    32    33    1
    22    17    18   ar
    23    18    19   ar
    24     4     5   ar
    25     5     6   ar
    26     6     7   ar
    27     7     8   ar
    28     8     9   ar
    29     9    10   ar
    30    10    34    1
    31    34    35    1
    32    35    36    1
    33    36    37    1
    34    37    38    1
    35    38    39    1
    36    39    40    1
    37    40    41    1
    38    41    42    1
    39    42    43    1
    40    43    44    1
    41    10     1   ar
    42    42    38    1
    43     8     3   ar
    44    19    15   ar
    45    32    26   ar
    46    13    14    1
    47    24    25    1
    48    19    20    1
    49    44    45    1
@<TRIPOS>MOLECULE
*****
 45 49 0 0 0
SMALL
GASTEIGER

@<TRIPOS>ATOM
      1 C         142.3545  143.3475  160.8930 C.ar    1  UNL1        0.1726
      2 C         142.5663  141.8670  161.0093 C.ar    1  UNL1        0.0443
      3 C         141.6754  140.9208  160.2601 C.ar    1  UNL1        0.0527
      4 C         141.8873  139.4404  160.3764 C.ar    1  UNL1        0.1364
      5 N         140.9965  138.4942  159.6273 N.ar    1  UNL1       -0.2089
      6 C         139.8939  139.0285  158.7620 C.ar    1  UNL1        0.2000
      7 N         139.6820  140.5089  158.6458 N.ar    1  UNL1       -0.2238
      8 C         140.5728  141.4551  159.3948 C.ar    1  UNL1        0.0890
      9 C         140.3610  142.9355  159.2786 C.ar    1  UNL1        0.0593
     10 C         141.2518  143.8817  160.0277 C.ar    1  UNL1        0.1737
     11 C         144.4182  143.7668  162.4147 C.3     1  UNL1        0.2526
     12 O         143.2453  144.2936  161.6421 O.3     1  UNL1       -0.4684
     13 N         142.9900  138.9062  161.2417 N.pl3   1  UNL1       -0.2837
     14 H         143.8888  138.7683  160.8645 H       1  UNL1        0.1550
     15 C         142.7231  138.5822  162.6818 C.ar    1  UNL1        0.1276
     16 C         143.6625  138.8175  163.8272 C.ar    1  UNL1        0.0507
     17 C         142.9900  138.3467  165.0826 C.ar    1  UNL1        0.0903
     18 N         141.6348  137.8204  164.7131 N.ar    1  UNL1       -0.1755
     19 N         141.4699  137.9660  163.2293 N.ar    1  UNL1       -0.2631
     20 H         140.6781  137.7032  162.7065 H       1  UNL1        0.1903
     21 C         143.5706  138.3939  166.4649 C.3     1  UNL1        0.1328
     22 C         142.8857  139.1851  167.5394 C.2     1  UNL1        0.2323
     23 O         143.0151  138.7695  168.9749 O.2     1  UNL1       -0.2744
     24 N         142.0713  140.3920  167.1785 N.am    1  UNL1       -0.2818
     25 H         141.9864  140.6648  166.2364 H       1  UNL1        0.1549
     26 C         141.3863  141.1833  168.2532 C.ar    1  UNL1        0.0804
     27 C         142.0098  142.4473  168.7666 C.ar    1  UNL1        0.0171
     28 C         141.3248  143.2386  169.8412 C.ar    1  UNL1        0.0037
     29 C         140.0165  142.7659  170.4023 C.ar    1  UNL1        0.0321
     30 C         139.3931  141.5020  169.8887 C.ar    1  UNL1        0.1686
     31 F         138.0847  141.0293  170.4497 F       1  UNL1       -0.2018
     32 C         140.0780  140.7107  168.8142 C.ar    1  UNL1        0.1807
     33 F         139.4546  139.4467  168.3006 F       1  UNL1       -0.2005
     34 O         141.0400  145.3621  159.9115 O.3     1  UNL1       -0.4723
     35 C         139.9778  146.0343  160.7299 C.3     1  UNL1        0.2070
     36 C         140.0441  145.9891  162.2277 C.3     1  UNL1        0.0646
     37 C         139.1841  145.0234  162.9878 C.3     1  UNL1        0.0760
     38 N         139.7330  143.6870  163.3912 N.3     1  UNL1       -0.2716
     39 C         140.9888  143.4503  164.1767 C.3     1  UNL1        0.0722
     40 C         141.1544  141.9697  164.3509 C.3     1  UNL1        0.0188
     41 C         140.0010  141.2913  163.6731 C.3     1  UNL1        0.0199
     42 C         139.1225  142.3526  163.0799 C.3     1  UNL1        0.0870
     43 C         137.8560  142.1204  162.3107 C.3     1  UNL1        0.1530
     44 O         136.7091  141.3988  162.9541 O.3     1  UNL1       -0.3806
     45 H         136.9633  140.4793  163.1296 H       1  UNL1        0.2105
@<TRIPOS>BOND
     1    11    12    1
     2    12     1    1
     3     1     2   ar
     4     2     3   ar
     5     3     4   ar
     6     4    13    1
     7    13    15    1
     8    15    16   ar
     9    16    17   ar
    10    17    21    1
    11    21    22    1
    12    22    23    2
    13    22    24   am
    14    24    26    1
    15    26    27   ar
    16    27    28   ar
    17    28    29   ar
    18    29    30   ar
    19    30    31    1
    20    30    32   ar
    21    32    33    1
    22    17    18   ar
    23    18    19   ar
    24     4     5   ar
    25     5     6   ar
    26     6     7   ar
    27     7     8   ar
    28     8     9   ar
    29     9    10   ar
    30    10    34    1
    31    34    35    1
    32    35    36    1
    33    36    37    1
    34    37    38    1
    35    38    39    1
    36    39    40    1
    37    40    41    1
    38    41    42    1
    39    42    43    1
    40    43    44    1
    41    10     1   ar
    42    42    38    1
    43     8     3   ar
    44    19    15   ar
    45    32    26   ar
    46    13    14    1
    47    24    25    1
    48    19    20    1
    49    44    45    1
@<TRIPOS>MOLECULE
*****
 45 49 0 0 0
SMALL
GASTEIGER

@<TRIPOS>ATOM
      1 C         143.1365  141.3289  161.7791 C.ar    1  UNL1        0.1726
      2 C         141.9973  140.3862  161.5266 C.ar    1  UNL1        0.0443
      3 C         140.7852  140.8576  160.7792 C.ar    1  UNL1        0.0527
      4 C         139.6461  139.9149  160.5267 C.ar    1  UNL1        0.1364
      5 N         138.4341  140.3863  159.7793 N.ar    1  UNL1       -0.2089
      6 C         138.3611  141.8003  159.2843 C.ar    1  UNL1        0.2000
      7 N         139.5002  142.7430  159.5368 N.ar    1  UNL1       -0.2238
      8 C         140.7123  142.2717  160.2842 C.ar    1  UNL1        0.0890
      9 C         141.8514  143.2144  160.5366 C.ar    1  UNL1        0.0593
     10 C         143.0635  142.7430  161.2841 C.ar    1  UNL1        0.1737
     11 C         144.3097  139.5585  163.2754 C.3     1  UNL1        0.2526
     12 O         144.3485  140.8575  162.5265 O.3     1  UNL1       -0.4684
     13 N         139.7191  138.5008  161.0217 N.pl3   1  UNL1       -0.2837
     14 H         139.7882  137.7575  160.3799 H       1  UNL1        0.1550
     15 C         139.6868  138.2192  162.4947 C.ar    1  UNL1        0.1276
     16 C         138.7054  138.7833  163.4789 C.ar    1  UNL1        0.0507
     17 C         139.0423  138.2368  164.8346 C.ar    1  UNL1        0.0903
     18 N         140.2320  137.3349  164.6883 N.ar    1  UNL1       -0.1755
     19 N         140.6303  137.3241  163.2422 N.ar    1  UNL1       -0.2631
     20 H         141.3794  136.8182  162.8521 H       1  UNL1        0.1903
     21 C         138.3169  138.5391  166.1122 C.3     1  UNL1        0.1328
     22 C         138.9681  139.3915  167.1607 C.2     1  UNL1        0.2323
     23 O         138.4343  139.3947  168.5626 O.2     1  UNL1       -0.2744
     24 N         140.1531  140.2406  166.8074 N.am    1  UNL1       -0.2818
     25 H         140.5034  140.2384  165.8874 H       1  UNL1        0.1549
     26 C         140.8043  141.0930  167.8560 C.ar    1  UNL1        0.0804
     27 C         140.2247  142.4333  168.1992 C.ar    1  UNL1        0.0171
     28 C         140.8759  143.2857  169.2477 C.ar    1  UNL1        0.0037
     29 C         142.1067  142.7979  169.9529 C.ar    1  UNL1        0.0321
     30 C         142.6862  141.4577  169.6096 C.ar    1  UNL1        0.1686
     31 F         143.9169  140.9698  170.3148 F       1  UNL1       -0.2018
     32 C         142.0350  140.6053  168.5612 C.ar    1  UNL1        0.1807
     33 F         142.6146  139.2650  168.2179 F       1  UNL1       -0.2005
     34 O         144.2026  143.6857  161.5365 O.3     1  UNL1       -0.4723
     35 C         144.2939  144.4192  162.8417 C.3     1  UNL1        0.2070
     36 C         143.1680  144.3358  163.8293 C.3     1  UNL1        0.0646
     37 C         142.0289  145.3087  163.7520 C.3     1  UNL1        0.0760
     38 N         140.6145  144.8092  163.7547 N.3     1  UNL1       -0.2716
     39 C         140.0397  143.7943  164.6978 C.3     1  UNL1        0.0722
     40 C         138.5965  143.5948  164.3409 C.3     1  UNL1        0.0188
     41 C         138.2793  144.4865  163.1771 C.3     1  UNL1        0.0199
     42 C         139.5265  145.2371  162.8148 C.3     1  UNL1        0.0870
     43 C         139.6619  146.2395  161.7073 C.3     1  UNL1        0.1530
     44 O         139.6615  145.7831  160.2784 O.3     1  UNL1       -0.3806
     45 H         140.4524  145.2473  160.1099 H       1  UNL1        0.2105
@<TRIPOS>BOND
     1    11    12    1
     2    12     1    1
     3     1     2   ar
     4     2     3   ar
     5     3     4   ar
     6     4    13    1
     7    13    15    1
     8    15    16   ar
     9    16    17   ar
    10    17    21    1
    11    21    22    1
    12    22    23    2
    13    22    24   am
    14    24    26    1
    15    26    27   ar
    16    27    28   ar
    17    28    29   ar
    18    29    30   ar
    19    30    31    1
    20    30    32   ar
    21    32    33    1
    22    17    18   ar
    23    18    19   ar
    24     4     5   ar
    25     5     6   ar
    26     6     7   ar
    27     7     8   ar
    28     8     9   ar
    29     9    10   ar
    30    10    34    1
    31    34    35    1
    32    35    36    1
    33    36    37    1
    34    37    38    1
    35    38    39    1
    36    39    40    1
    37    40    41    1
    38    41    42    1
    39    42    43    1
    40    43    44    1
    41    10     1   ar
    42    42    38    1
    43     8     3   ar
    44    19    15   ar
    45    32    26   ar
    46    13    14    1
    47    24    25    1
    48    19    20    1
    49    44    45    1
@<TRIPOS>MOLECULE
*****
 45 49 0 0 0
SMALL
GASTEIGER

@<TRIPOS>ATOM
      1 C         140.9825  144.2647  162.1344 C.ar    1  UNL1        0.1726
      2 C         142.1430  143.5024  161.5668 C.ar    1  UNL1        0.0443
      3 C         141.9346  142.5707  160.4098 C.ar    1  UNL1        0.0527
      4 C         143.0951  141.8084  159.8422 C.ar    1  UNL1        0.1364
      5 N         142.8867  140.8767  158.6853 N.ar    1  UNL1       -0.2089
      6 C         141.5178  140.7073  158.0960 C.ar    1  UNL1        0.2000
      7 N         140.3572  141.4695  158.6637 N.ar    1  UNL1       -0.2238
      8 C         140.5656  142.4012  159.8205 C.ar    1  UNL1        0.0890
      9 C         139.4051  143.1635  160.3882 C.ar    1  UNL1        0.0593
     10 C         139.6135  144.0952  161.5450 C.ar    1  UNL1        0.1737
     11 C         142.5580  145.3584  163.8870 C.3     1  UNL1        0.2526
     12 O         141.1909  145.1964  163.2913 O.3     1  UNL1       -0.4684
     13 N         144.4641  141.9779  160.4316 N.pl3   1  UNL1       -0.2837
     14 H         145.1694  142.4315  159.9157 H       1  UNL1        0.1550
     15 C         144.7584  141.4564  161.8068 C.ar    1  UNL1        0.1276
     16 C         144.1304  140.2539  162.4468 C.ar    1  UNL1        0.0507
     17 C         144.7162  140.1001  163.8191 C.ar    1  UNL1        0.0903
     18 N         145.7063  141.2076  164.0273 N.ar    1  UNL1       -0.1755
     19 N         145.7323  142.0458  162.7836 N.ar    1  UNL1       -0.2631
     20 H         146.2906  142.8429  162.6346 H       1  UNL1        0.1903
     21 C         144.3724  139.0272  164.8094 C.3     1  UNL1        0.1328
     22 C         143.5244  139.3523  166.0032 C.2     1  UNL1        0.2323
     23 O         143.5871  138.4859  167.2261 O.2     1  UNL1       -0.2744
     24 N         142.6136  140.5438  165.9741 N.am    1  UNL1       -0.2818
     25 H         142.5725  141.1124  165.1714 H       1  UNL1        0.1549
     26 C         141.7656  140.8690  167.1679 C.ar    1  UNL1        0.0804
     27 C         140.5064  140.0957  167.4263 C.ar    1  UNL1        0.0171
     28 C         139.6584  140.4209  168.6201 C.ar    1  UNL1        0.0037
     29 C         140.0695  141.5192  169.5554 C.ar    1  UNL1        0.0321
     30 C         141.3285  142.2923  169.2969 C.ar    1  UNL1        0.1686
     31 F         141.7396  143.3906  170.2322 F       1  UNL1       -0.2018
     32 C         142.1766  141.9672  168.1032 C.ar    1  UNL1        0.1807
     33 F         143.4357  142.7404  167.8447 F       1  UNL1       -0.2005
     34 O         138.4530  144.8574  162.1126 O.3     1  UNL1       -0.4723
     35 C         137.6588  144.2799  163.2465 C.3     1  UNL1        0.2070
     36 C         137.9703  142.9039  163.7560 C.3     1  UNL1        0.0646
     37 C         137.2361  141.7167  163.2068 C.3     1  UNL1        0.0760
     38 N         137.8345  140.3460  163.3214 N.3     1  UNL1       -0.2716
     39 C         138.3493  139.7110  164.5791 C.3     1  UNL1        0.0722
     40 C         138.8560  138.3422  164.2335 C.3     1  UNL1        0.0188
     41 C         138.6545  138.1312  162.7621 C.3     1  UNL1        0.0199
     42 C         138.0231  139.3696  162.1984 C.3     1  UNL1        0.0870
     43 C         137.6466  139.5925  160.7637 C.3     1  UNL1        0.1530
     44 O         138.6355  139.3000  159.6745 O.3     1  UNL1       -0.3806
     45 H         139.3832  139.9140  159.7432 H       1  UNL1        0.2105
@<TRIPOS>BOND
     1    11    12    1
     2    12     1    1
     3     1     2   ar
     4     2     3   ar
     5     3     4   ar
     6     4    13    1
     7    13    15    1
     8    15    16   ar
     9    16    17   ar
    10    17    21    1
    11    21    22    1
    12    22    23    2
    13    22    24   am
    14    24    26    1
    15    26    27   ar
    16    27    28   ar
    17    28    29   ar
    18    29    30   ar
    19    30    31    1
    20    30    32   ar
    21    32    33    1
    22    17    18   ar
    23    18    19   ar
    24     4     5   ar
    25     5     6   ar
    26     6     7   ar
    27     7     8   ar
    28     8     9   ar
    29     9    10   ar
    30    10    34    1
    31    34    35    1
    32    35    36    1
    33    36    37    1
    34    37    38    1
    35    38    39    1
    36    39    40    1
    37    40    41    1
    38    41    42    1
    39    42    43    1
    40    43    44    1
    41    10     1   ar
    42    42    38    1
    43     8     3   ar
    44    19    15   ar
    45    32    26   ar
    46    13    14    1
    47    24    25    1
    48    19    20    1
    49    44    45    1
@<TRIPOS>MOLECULE
*****
 45 49 0 0 0
SMALL
GASTEIGER

@<TRIPOS>ATOM
      1 C         139.6859  141.4725  162.1914 C.ar    1  UNL1        0.1726
      2 C         140.8060  140.5627  161.7820 C.ar    1  UNL1        0.0443
      3 C         141.6337  140.8887  160.5741 C.ar    1  UNL1        0.0527
      4 C         142.7538  139.9789  160.1647 C.ar    1  UNL1        0.1364
      5 N         143.5814  140.3048  158.9570 N.ar    1  UNL1       -0.2089
      6 C         143.2889  141.5405  158.1586 C.ar    1  UNL1        0.2000
      7 N         142.1688  142.4503  158.5680 N.ar    1  UNL1       -0.2238
      8 C         141.3412  142.1244  159.7758 C.ar    1  UNL1        0.0890
      9 C         140.2211  143.0342  160.1852 C.ar    1  UNL1        0.0593
     10 C         139.3935  142.7083  161.3930 C.ar    1  UNL1        0.1737
     11 C         138.2817  139.7718  163.5646 C.3     1  UNL1        0.2526
     12 O         138.8583  141.1466  163.3992 O.3     1  UNL1       -0.4684
     13 N         143.0463  138.7431  160.9632 N.pl3   1  UNL1       -0.2837
     14 H         142.8782  137.8545  160.5742 H       1  UNL1        0.1550
     15 C         143.5948  138.8614  162.3543 C.ar    1  UNL1        0.1276
     16 C         142.9109  138.4155  163.6126 C.ar    1  UNL1        0.0507
     17 C         143.8170  138.7248  164.7673 C.ar    1  UNL1        0.0903
     18 N         145.0610  139.3619  164.2226 N.ar    1  UNL1       -0.1755
     19 N         144.9236  139.4463  162.7313 N.ar    1  UNL1       -0.2631
     20 H         145.5889  139.8200  162.1091 H       1  UNL1        0.1903
     21 C         143.5296  138.4460  166.2129 C.3     1  UNL1        0.1328
     22 C         142.4784  139.2361  166.9344 C.2     1  UNL1        0.2323
     23 O         141.1171  139.4036  166.3269 O.2     1  UNL1       -0.2744
     24 N         142.7884  139.8586  168.2634 N.am    1  UNL1       -0.2818
     25 H         143.6818  139.7487  168.6621 H       1  UNL1        0.1549
     26 C         141.7371  140.6488  168.9851 C.ar    1  UNL1        0.0804
     27 C         140.5612  139.9478  169.5983 C.ar    1  UNL1        0.0171
     28 C         139.5099  140.7380  170.3199 C.ar    1  UNL1        0.0037
     29 C         139.6346  142.2288  170.4283 C.ar    1  UNL1        0.0321
     30 C         140.8105  142.9296  169.8151 C.ar    1  UNL1        0.1686
     31 F         140.9352  144.4205  169.9234 F       1  UNL1       -0.2018
     32 C         141.8617  142.1396  169.0935 C.ar    1  UNL1        0.1807
     33 F         143.0376  142.8404  168.4802 F       1  UNL1       -0.2005
     34 O         138.2733  143.6181  161.8024 O.3     1  UNL1       -0.4723
     35 C         138.5588  144.8290  162.6403 C.3     1  UNL1        0.2070
     36 C         139.8591  145.5601  162.4834 C.3     1  UNL1        0.0646
     37 C         140.8884  145.5021  163.5729 C.3     1  UNL1        0.0760
     38 N         141.7082  144.2607  163.7648 N.3     1  UNL1       -0.2716
     39 C         142.9142  143.8679  162.9640 C.3     1  UNL1        0.0722
     40 C         143.4173  142.5585  163.4956 C.3     1  UNL1        0.0188
     41 C         142.5222  142.1422  164.6250 C.3     1  UNL1        0.0199
     42 C         141.4659  143.1941  164.7915 C.3     1  UNL1        0.0870
     43 C         140.3615  143.1818  165.8062 C.3     1  UNL1        0.1530
     44 O         139.7412  141.8815  166.2240 O.3     1  UNL1       -0.3806
     45 H         139.2733  141.4895  165.4701 H       1  UNL1        0.2105
@<TRIPOS>BOND
     1    11    12    1
     2    12     1    1
     3     1     2   ar
     4     2     3   ar
     5     3     4   ar
     6     4    13    1
     7    13    15    1
     8    15    16   ar
     9    16    17   ar
    10    17    21    1
    11    21    22    1
    12    22    23    2
    13    22    24   am
    14    24    26    1
    15    26    27   ar
    16    27    28   ar
    17    28    29   ar
    18    29    30   ar
    19    30    31    1
    20    30    32   ar
    21    32    33    1
    22    17    18   ar
    23    18    19   ar
    24     4     5   ar
    25     5     6   ar
    26     6     7   ar
    27     7     8   ar
    28     8     9   ar
    29     9    10   ar
    30    10    34    1
    31    34    35    1
    32    35    36    1
    33    36    37    1
    34    37    38    1
    35    38    39    1
    36    39    40    1
    37    40    41    1
    38    41    42    1
    39    42    43    1
    40    43    44    1
    41    10     1   ar
    42    42    38    1
    43     8     3   ar
    44    19    15   ar
    45    32    26   ar
    46    13    14    1
    47    24    25    1
    48    19    20    1
    49    44    45    1
@<TRIPOS>MOLECULE
*****
 45 49 0 0 0
SMALL
GASTEIGER

@<TRIPOS>ATOM
      1 C         143.8678  141.2794  163.3816 C.ar    1  UNL1        0.1726
      2 C         143.2597  139.9594  163.0103 C.ar    1  UNL1        0.0443
      3 C         143.1845  139.5468  161.5701 C.ar    1  UNL1        0.0527
      4 C         142.5765  138.2268  161.1988 C.ar    1  UNL1        0.1364
      5 N         142.5012  137.8143  159.7586 N.ar    1  UNL1       -0.2089
      6 C         143.0341  138.7218  158.6898 C.ar    1  UNL1        0.2000
      7 N         143.6421  140.0418  159.0611 N.ar    1  UNL1       -0.2238
      8 C         143.7174  140.4543  160.5012 C.ar    1  UNL1        0.0890
      9 C         144.3254  141.7743  160.8725 C.ar    1  UNL1        0.0593
     10 C         144.4006  142.1869  162.3127 C.ar    1  UNL1        0.1737
     11 C         142.7579  141.4975  165.7205 C.3     1  UNL1        0.2526
     12 O         143.9430  141.6919  164.8218 O.3     1  UNL1       -0.4684
     13 N         142.0436  137.3194  162.2678 N.pl3   1  UNL1       -0.2837
     14 H         142.5494  136.5160  162.5287 H       1  UNL1        0.1550
     15 C         140.7402  137.6359  162.9392 C.ar    1  UNL1        0.1276
     16 C         140.5626  138.0458  164.3711 C.ar    1  UNL1        0.0507
     17 C         139.0981  138.2613  164.6134 C.ar    1  UNL1        0.0903
     18 N         138.3705  137.9847  163.3312 N.ar    1  UNL1       -0.1755
     19 N         139.3853  137.5981  162.2965 N.ar    1  UNL1       -0.2631
     20 H         139.1955  137.3613  161.3600 H       1  UNL1        0.1903
     21 C         138.4713  138.6800  165.9103 C.3     1  UNL1        0.1328
     22 C         139.1398  139.7140  166.7670 C.2     1  UNL1        0.2323
     23 O         139.3058  141.1156  166.2591 O.2     1  UNL1       -0.2744
     24 N         139.6422  139.3463  168.1317 N.am    1  UNL1       -0.2818
     25 H         139.5333  138.4264  168.4651 H       1  UNL1        0.1549
     26 C         140.3108  140.3803  168.9885 C.ar    1  UNL1        0.0804
     27 C         139.4834  141.3826  169.7374 C.ar    1  UNL1        0.0171
     28 C         140.1519  142.4166  170.5942 C.ar    1  UNL1        0.0037
     29 C         141.6477  142.4482  170.7021 C.ar    1  UNL1        0.0321
     30 C         142.4750  141.4459  169.9532 C.ar    1  UNL1        0.1686
     31 F         143.9707  141.4775  170.0610 F       1  UNL1       -0.2018
     32 C         141.8065  140.4120  169.0964 C.ar    1  UNL1        0.1807
     33 F         142.6338  139.4096  168.3474 F       1  UNL1       -0.2005
     34 O         145.0087  143.5069  162.6840 O.3     1  UNL1       -0.4723
     35 C         144.1425  144.7262  162.7976 C.3     1  UNL1        0.2070
     36 C         143.0069  144.7508  163.7773 C.3     1  UNL1        0.0646
     37 C         141.5907  144.7707  163.2836 C.3     1  UNL1        0.0760
     38 N         141.0313  143.5806  162.5619 N.3     1  UNL1       -0.2716
     39 C         140.2948  142.4347  163.1898 C.3     1  UNL1        0.0722
     40 C         139.9184  141.4734  162.1015 C.3     1  UNL1        0.0188
     41 C         140.4224  142.0253  160.8010 C.3     1  UNL1        0.0199
     42 C         141.1102  143.3276  161.0854 C.3     1  UNL1        0.0870
     43 C         141.7622  144.2202  160.0716 C.3     1  UNL1        0.1530
     44 O         141.4295  145.6824  160.0351 O.3     1  UNL1       -0.3806
     45 H         140.5011  145.7964  159.7783 H       1  UNL1        0.2105
@<TRIPOS>BOND
     1    11    12    1
     2    12     1    1
     3     1     2   ar
     4     2     3   ar
     5     3     4   ar
     6     4    13    1
     7    13    15    1
     8    15    16   ar
     9    16    17   ar
    10    17    21    1
    11    21    22    1
    12    22    23    2
    13    22    24   am
    14    24    26    1
    15    26    27   ar
    16    27    28   ar
    17    28    29   ar
    18    29    30   ar
    19    30    31    1
    20    30    32   ar
    21    32    33    1
    22    17    18   ar
    23    18    19   ar
    24     4     5   ar
    25     5     6   ar
    26     6     7   ar
    27     7     8   ar
    28     8     9   ar
    29     9    10   ar
    30    10    34    1
    31    34    35    1
    32    35    36    1
    33    36    37    1
    34    37    38    1
    35    38    39    1
    36    39    40    1
    37    40    41    1
    38    41    42    1
    39    42    43    1
    40    43    44    1
    41    10     1   ar
    42    42    38    1
    43     8     3   ar
    44    19    15   ar
    45    32    26   ar
    46    13    14    1
    47    24    25    1
    48    19    20    1
    49    44    45    1
@<TRIPOS>MOLECULE
*****
 45 49 0 0 0
SMALL
GASTEIGER

@<TRIPOS>ATOM
      1 C         143.8262  141.3497  163.0703 C.ar    1  UNL1        0.1726
      2 C         143.2823  139.9936  162.7308 C.ar    1  UNL1        0.0443
      3 C         143.1550  139.5742  161.2962 C.ar    1  UNL1        0.0527
      4 C         142.6111  138.2181  160.9567 C.ar    1  UNL1        0.1364
      5 N         142.4837  137.7987  159.5223 N.ar    1  UNL1       -0.2089
      6 C         142.9003  138.7354  158.4272 C.ar    1  UNL1        0.2000
      7 N         143.4442  140.0915  158.7667 N.ar    1  UNL1       -0.2238
      8 C         143.5716  140.5109  160.2012 C.ar    1  UNL1        0.0890
      9 C         144.1155  141.8669  160.5407 C.ar    1  UNL1        0.0593
     10 C         144.2428  142.2863  161.9752 C.ar    1  UNL1        0.1737
     11 C         142.7230  142.0191  165.3252 C.3     1  UNL1        0.2526
     12 O         143.9536  141.7691  164.5048 O.3     1  UNL1       -0.4684
     13 N         142.1945  137.2815  162.0519 N.pl3   1  UNL1       -0.2837
     14 H         142.7478  136.4953  162.2642 H       1  UNL1        0.1550
     15 C         140.9349  137.5426  162.8234 C.ar    1  UNL1        0.1276
     16 C         140.8474  137.8636  164.2860 C.ar    1  UNL1        0.0507
     17 C         139.4002  138.0481  164.6344 C.ar    1  UNL1        0.0903
     18 N         138.5932  137.8411  163.3870 N.ar    1  UNL1       -0.1755
     19 N         139.5417  137.5287  162.2678 N.ar    1  UNL1       -0.2631
     20 H         139.2934  137.3465  161.3327 H       1  UNL1        0.1903
     21 C         138.8555  138.3811  165.9918 C.3     1  UNL1        0.1328
     22 C         139.3117  139.6227  166.6990 C.2     1  UNL1        0.2323
     23 O         139.1176  140.9650  166.0583 O.2     1  UNL1       -0.2744
     24 N         139.9620  139.5220  168.0469 N.am    1  UNL1       -0.2818
     25 H         140.0894  138.6410  168.4674 H       1  UNL1        0.1549
     26 C         140.4183  140.7637  168.7542 C.ar    1  UNL1        0.0804
     27 C         141.7665  141.3471  168.4509 C.ar    1  UNL1        0.0171
     28 C         142.2227  142.5888  169.1582 C.ar    1  UNL1        0.0037
     29 C         141.3307  143.2470  170.1686 C.ar    1  UNL1        0.0321
     30 C         139.9826  142.6636  170.4719 C.ar    1  UNL1        0.1686
     31 F         139.0906  143.3218  171.4824 F       1  UNL1       -0.2018
     32 C         139.5264  141.4220  169.7647 C.ar    1  UNL1        0.1807
     33 F         138.1781  140.8386  170.0679 F       1  UNL1       -0.2005
     34 O         144.7867  143.6424  162.3147 O.3     1  UNL1       -0.4723
     35 C         143.8635  144.7213  162.7980 C.3     1  UNL1        0.2070
     36 C         142.4121  144.6912  162.4205 C.3     1  UNL1        0.0646
     37 C         141.3596  144.8838  163.4717 C.3     1  UNL1        0.0760
     38 N         139.9960  144.2873  163.2859 N.3     1  UNL1       -0.2716
     39 C         139.4526  143.7089  162.0130 C.3     1  UNL1        0.0722
     40 C         138.0570  143.2286  162.2807 C.3     1  UNL1        0.0188
     41 C         137.7379  143.5101  163.7191 C.3     1  UNL1        0.0199
     42 C         138.9362  144.1644  164.3404 C.3     1  UNL1        0.0870
     43 C         139.0541  144.6164  165.7657 C.3     1  UNL1        0.1530
     44 O         138.0825  145.6168  166.3182 O.3     1  UNL1       -0.3806
     45 H         138.2030  146.4674  165.8677 H       1  UNL1        0.2105
@<TRIPOS>BOND
     1    11    12    1
     2    12     1    1
     3     1     2   ar
     4     2     3   ar
     5     3     4   ar
     6     4    13    1
     7    13    15    1
     8    15    16   ar
     9    16    17   ar
    10    17    21    1
    11    21    22    1
    12    22    23    2
    13    22    24   am
    14    24    26    1
    15    26    27   ar
    16    27    28   ar
    17    28    29   ar
    18    29    30   ar
    19    30    31    1
    20    30    32   ar
    21    32    33    1
    22    17    18   ar
    23    18    19   ar
    24     4     5   ar
    25     5     6   ar
    26     6     7   ar
    27     7     8   ar
    28     8     9   ar
    29     9    10   ar
    30    10    34    1
    31    34    35    1
    32    35    36    1
    33    36    37    1
    34    37    38    1
    35    38    39    1
    36    39    40    1
    37    40    41    1
    38    41    42    1
    39    42    43    1
    40    43    44    1
    41    10     1   ar
    42    42    38    1
    43     8     3   ar
    44    19    15   ar
    45    32    26   ar
    46    13    14    1
    47    24    25    1
    48    19    20    1
    49    44    45    1
@<TRIPOS>MOLECULE
*****
 45 49 0 0 0
SMALL
GASTEIGER

@<TRIPOS>ATOM
      1 C         143.6179  141.7730  162.2328 C.ar    1  UNL1        0.1726
      2 C         142.9446  140.5825  161.6168 C.ar    1  UNL1        0.0443
      3 C         142.4258  140.6580  160.2114 C.ar    1  UNL1        0.0527
      4 C         141.7526  139.4675  159.5955 C.ar    1  UNL1        0.1364
      5 N         141.2338  139.5430  158.1901 N.ar    1  UNL1       -0.2089
      6 C         141.3883  140.8090  157.4006 C.ar    1  UNL1        0.2000
      7 N         142.0615  141.9995  158.0166 N.ar    1  UNL1       -0.2238
      8 C         142.5803  141.9241  159.4219 C.ar    1  UNL1        0.0890
      9 C         143.2535  143.1146  160.0379 C.ar    1  UNL1        0.0593
     10 C         143.7723  143.0391  161.4432 C.ar    1  UNL1        0.1737
     11 C         145.3166  140.8278  163.9563 C.3     1  UNL1        0.2526
     12 O         144.1366  141.6976  163.6381 O.3     1  UNL1       -0.4684
     13 N         141.5981  138.2014  160.3850 N.pl3   1  UNL1       -0.2837
     14 H         142.2147  137.4488  160.2340 H       1  UNL1        0.1550
     15 C         140.5044  138.0820  161.4045 C.ar    1  UNL1        0.1276
     16 C         140.6877  137.7895  162.8642 C.ar    1  UNL1        0.0507
     17 C         139.3319  137.7609  163.5052 C.ar    1  UNL1        0.0903
     18 N         138.3105  138.0358  162.4416 N.ar    1  UNL1       -0.1755
     19 N         139.0351  138.2342  161.1433 N.ar    1  UNL1       -0.2631
     20 H         138.6194  138.4300  160.2726 H       1  UNL1        0.1903
     21 C         139.0474  137.5028  164.9551 C.3     1  UNL1        0.1328
     22 C         139.3976  138.5368  165.9838 C.2     1  UNL1        0.2323
     23 O         138.5126  138.7362  167.1784 O.2     1  UNL1       -0.2744
     24 N         140.6328  139.3715  165.8178 N.am    1  UNL1       -0.2818
     25 H         141.2136  139.2406  165.0338 H       1  UNL1        0.1549
     26 C         140.9831  140.4056  166.8465 C.ar    1  UNL1        0.0804
     27 C         140.2337  141.7043  166.8896 C.ar    1  UNL1        0.0171
     28 C         140.5840  142.7384  167.9183 C.ar    1  UNL1        0.0037
     29 C         141.6835  142.4737  168.9037 C.ar    1  UNL1        0.0321
     30 C         142.4327  141.1750  168.8605 C.ar    1  UNL1        0.1686
     31 F         143.5322  140.9103  169.8459 F       1  UNL1       -0.2018
     32 C         142.0825  140.1409  167.8319 C.ar    1  UNL1        0.1807
     33 F         142.8317  138.8422  167.7887 F       1  UNL1       -0.2005
     34 O         144.4455  144.2297  162.0591 O.3     1  UNL1       -0.4723
     35 C         143.8074  144.9356  163.2186 C.3     1  UNL1        0.2070
     36 C         142.3131  145.0273  163.3106 C.3     1  UNL1        0.0646
     37 C         141.5733  144.2149  164.3317 C.3     1  UNL1        0.0760
     38 N         140.0769  144.1260  164.2785 N.3     1  UNL1       -0.2716
     39 C         139.1189  144.8242  165.1977 C.3     1  UNL1        0.0722
     40 C         137.7256  144.4530  164.7841 C.3     1  UNL1        0.0188
     41 C         137.8225  143.5254  163.6093 C.3     1  UNL1        0.0199
     42 C         139.2756  143.3233  163.2968 C.3     1  UNL1        0.0870
     43 C         139.8301  142.4686  162.1960 C.3     1  UNL1        0.1530
     44 O         139.3059  141.0785  161.9891 O.3     1  UNL1       -0.3806
     45 H         139.5375  140.5285  162.7538 H       1  UNL1        0.2105
@<TRIPOS>BOND
     1    11    12    1
     2    12     1    1
     3     1     2   ar
     4     2     3   ar
     5     3     4   ar
     6     4    13    1
     7    13    15    1
     8    15    16   ar
     9    16    17   ar
    10    17    21    1
    11    21    22    1
    12    22    23    2
    13    22    24   am
    14    24    26    1
    15    26    27   ar
    16    27    28   ar
    17    28    29   ar
    18    29    30   ar
    19    30    31    1
    20    30    32   ar
    21    32    33    1
    22    17    18   ar
    23    18    19   ar
    24     4     5   ar
    25     5     6   ar
    26     6     7   ar
    27     7     8   ar
    28     8     9   ar
    29     9    10   ar
    30    10    34    1
    31    34    35    1
    32    35    36    1
    33    36    37    1
    34    37    38    1
    35    38    39    1
    36    39    40    1
    37    40    41    1
    38    41    42    1
    39    42    43    1
    40    43    44    1
    41    10     1   ar
    42    42    38    1
    43     8     3   ar
    44    19    15   ar
    45    32    26   ar
    46    13    14    1
    47    24    25    1
    48    19    20    1
    49    44    45    1
