@<TRIPOS>MOLECULE
*****
 33 34 0 0 0
SMALL
GASTEIGER

@<TRIPOS>ATOM
      1 N         140.7921  144.6309  161.8542 N.am    1  UNL1       -0.3045
      2 C         142.1974  144.4348  162.3408 C.2     1  UNL1        0.2425
      3 O         143.2955  144.1399  161.3625 O.2     1  UNL1       -0.2733
      4 H         140.0714  144.8245  162.4963 H       1  UNL1        0.1494
      5 C         139.5695  143.4559  159.8858 C.3     1  UNL1        0.0489
      6 C         139.2624  143.3572  158.4209 C.3     1  UNL1        0.0201
      7 C         139.8708  144.3347  157.4595 C.3     1  UNL1        0.0577
      8 C         140.7862  145.4110  157.9630 C.3     1  UNL1        0.0177
      9 C         141.0933  145.5097  159.4279 C.3     1  UNL1        0.0210
     10 C         140.4850  144.5322  160.3893 C.3     1  UNL1        0.0741
     11 N         139.5636  144.2359  155.9946 N.3     1  UNL1       -0.2741
     12 C         140.3835  143.3389  155.1152 C.3     1  UNL1        0.0896
     13 C         138.4367  145.0342  155.4091 C.3     1  UNL1        0.0576
     14 C         138.5481  146.5266  155.3080 C.3     1  UNL1        0.0173
     15 C         137.1984  144.3400  154.9246 C.3     1  UNL1        0.0173
     16 C         138.9612  142.4783  160.8472 C.3     1  UNL1        0.1439
     17 C         137.5742  142.7036  163.0325 C.3     1  UNL1        0.1741
     18 O         137.6726  142.8103  161.5395 O.3     1  UNL1       -0.3510
     19 C         142.5045  144.5336  163.8057 C.3     1  UNL1        0.1759
     20 N         142.1046  143.4239  164.7324 N.am    1  UNL1       -0.2931
     21 C         140.7279  143.4034  165.3276 C.2     1  UNL1        0.2462
     22 O         139.7512  144.4925  164.9962 O.2     1  UNL1       -0.2701
     23 H         142.7457  142.7091  164.9499 H       1  UNL1        0.1502
     24 C         140.3280  142.2937  166.2543 C.ar    1  UNL1        0.0533
     25 C         140.4846  142.4613  167.7366 C.ar    1  UNL1        0.0045
     26 C         140.0846  141.3516  168.6632 C.ar    1  UNL1        0.0001
     27 C         139.5280  140.0744  168.1075 C.ar    1  UNL1        0.0039
     28 C         139.3714  139.9068  166.6252 C.ar    1  UNL1        0.0716
     29 C         139.7714  141.0164  165.6986 C.ar    1  UNL1        0.0084
     30 C         138.8149  138.6295  166.0694 C.3     1  UNL1        0.4186
     31 F         138.2583  137.3522  165.5137 F       1  UNL1       -0.1659
     32 F         140.1535  138.3045  165.4758 F       1  UNL1       -0.1659
     33 F         137.4762  138.9545  166.6631 F       1  UNL1       -0.1659
@<TRIPOS>BOND
     1    17    18    1
     2    18    16    1
     3     5    16    1
     4     5     6    1
     5     6     7    1
     6     7    11    1
     7    11    12    1
     8    11    13    1
     9    13    14    1
    10    13    15    1
    11     7     8    1
    12     8     9    1
    13     9    10    1
    14    10     1    1
    15     1     2   am
    16     2     3    2
    17     2    19    1
    18    19    20    1
    19    20    21   am
    20    21    22    2
    21    21    24    1
    22    24    25   ar
    23    25    26   ar
    24    26    27   ar
    25    27    28   ar
    26    28    30    1
    27    30    31    1
    28    30    32    1
    29    30    33    1
    30    28    29   ar
    31    10     5    1
    32    29    24   ar
    33     1     4    1
    34    20    23    1
@<TRIPOS>MOLECULE
*****
 33 34 0 0 0
SMALL
GASTEIGER

@<TRIPOS>ATOM
      1 N         139.8645  138.0746  160.4516 N.am    1  UNL1       -0.3045
      2 C         141.0135  138.7756  159.7896 C.2     1  UNL1        0.2425
      3 O         141.8638  139.7290  160.5757 O.2     1  UNL1       -0.2733
      4 H         139.3064  137.4488  159.9357 H       1  UNL1        0.1494
      5 C         138.4724  139.2787  162.2853 C.3     1  UNL1        0.0489
      6 C         138.1738  139.5310  163.7334 C.3     1  UNL1        0.0201
      7 C         138.9685  138.8316  164.7960 C.3     1  UNL1        0.0577
      8 C         140.0618  137.8798  164.4106 C.3     1  UNL1        0.0177
      9 C         140.3605  137.6275  162.9625 C.3     1  UNL1        0.0210
     10 C         139.5658  138.3269  161.8998 C.3     1  UNL1        0.0741
     11 N         138.6698  139.0840  166.2442 N.3     1  UNL1       -0.2741
     12 C         137.5959  138.2981  166.9365 C.3     1  UNL1        0.0896
     13 C         139.4449  140.1221  167.0001 C.3     1  UNL1        0.0576
     14 C         140.1584  141.2133  166.2581 C.3     1  UNL1        0.0173
     15 C         139.5066  140.0692  168.4979 C.3     1  UNL1        0.0173
     16 C         137.6777  139.9782  161.2226 C.3     1  UNL1        0.1439
     17 C         138.0798  140.7941  158.7890 C.3     1  UNL1        0.1741
     18 O         138.3631  140.9001  160.2582 O.3     1  UNL1       -0.3510
     19 C         141.3122  138.5232  158.3414 C.3     1  UNL1        0.1759
     20 N         141.9208  137.2196  157.9173 N.am    1  UNL1       -0.2931
     21 C         141.6487  136.6758  156.5461 C.2     1  UNL1        0.2462
     22 O         140.7680  137.4357  155.5990 O.2     1  UNL1       -0.2701
     23 H         142.4988  136.7208  158.5389 H       1  UNL1        0.1502
     24 C         142.2573  135.3720  156.1219 C.ar    1  UNL1        0.0533
     25 C         141.8524  134.7431  154.8217 C.ar    1  UNL1        0.0045
     26 C         142.4610  133.4394  154.3976 C.ar    1  UNL1        0.0001
     27 C         143.4745  132.7646  155.2736 C.ar    1  UNL1        0.0039
     28 C         143.8795  133.3935  156.5738 C.ar    1  UNL1        0.0716
     29 C         143.2709  134.6972  156.9979 C.ar    1  UNL1        0.0084
     30 C         144.8930  132.7188  157.4498 C.3     1  UNL1        0.4186
     31 F         145.9066  132.0440  158.3258 F       1  UNL1       -0.1659
     32 F         144.4613  133.5713  158.6060 F       1  UNL1       -0.1659
     33 F         145.3247  131.8662  156.2936 F       1  UNL1       -0.1659
@<TRIPOS>BOND
     1    17    18    1
     2    18    16    1
     3     5    16    1
     4     5     6    1
     5     6     7    1
     6     7    11    1
     7    11    12    1
     8    11    13    1
     9    13    14    1
    10    13    15    1
    11     7     8    1
    12     8     9    1
    13     9    10    1
    14    10     1    1
    15     1     2   am
    16     2     3    2
    17     2    19    1
    18    19    20    1
    19    20    21   am
    20    21    22    2
    21    21    24    1
    22    24    25   ar
    23    25    26   ar
    24    26    27   ar
    25    27    28   ar
    26    28    30    1
    27    30    31    1
    28    30    32    1
    29    30    33    1
    30    28    29   ar
    31    10     5    1
    32    29    24   ar
    33     1     4    1
    34    20    23    1
@<TRIPOS>MOLECULE
*****
 33 34 0 0 0
SMALL
GASTEIGER

@<TRIPOS>ATOM
      1 N         142.7220  138.0054  161.4678 N.am    1  UNL1       -0.3045
      2 C         142.6510  139.0061  160.3527 C.2     1  UNL1        0.2425
      3 O         142.3389  140.4423  160.6527 O.2     1  UNL1       -0.2733
      4 H         142.9269  137.0627  161.2709 H       1  UNL1        0.1494
      5 C         141.1763  138.1262  163.5525 C.3     1  UNL1        0.0489
      6 C         140.9354  138.5616  164.9675 C.3     1  UNL1        0.0201
      7 C         141.9993  139.3115  165.7129 C.3     1  UNL1        0.0577
      8 C         143.3041  139.6261  165.0433 C.3     1  UNL1        0.0177
      9 C         143.5450  139.1907  163.6283 C.3     1  UNL1        0.0210
     10 C         142.4811  138.4407  162.8829 C.3     1  UNL1        0.0741
     11 N         141.7583  139.7469  167.1280 N.3     1  UNL1       -0.2741
     12 C         142.7247  139.3578  168.2073 C.3     1  UNL1        0.0896
     13 C         140.5511  140.5714  167.4638 C.3     1  UNL1        0.0576
     14 C         140.5357  142.0392  167.1550 C.3     1  UNL1        0.0173
     15 C         139.3592  139.9280  168.1084 C.3     1  UNL1        0.0173
     16 C         140.1123  137.3762  162.8071 C.3     1  UNL1        0.1439
     17 C         139.0312  139.1237  161.2173 C.3     1  UNL1        0.1741
     18 O         139.7194  137.8072  161.4251 O.3     1  UNL1       -0.3510
     19 C         142.8919  138.5707  158.9376 C.3     1  UNL1        0.1759
     20 N         142.6415  137.1468  158.5381 N.am    1  UNL1       -0.2931
     21 C         143.1124  136.6483  157.2040 C.2     1  UNL1        0.2462
     22 O         143.8338  137.5737  156.2696 O.2     1  UNL1       -0.2701
     23 H         142.1680  136.5394  159.1514 H       1  UNL1        0.1502
     24 C         142.8620  135.2243  156.8044 C.ar    1  UNL1        0.0533
     25 C         141.7993  134.9044  155.7953 C.ar    1  UNL1        0.0045
     26 C         141.5489  133.4804  155.3957 C.ar    1  UNL1        0.0001
     27 C         142.3612  132.3765  156.0053 C.ar    1  UNL1        0.0039
     28 C         143.4238  132.6965  157.0144 C.ar    1  UNL1        0.0716
     29 C         143.6742  134.1204  157.4140 C.ar    1  UNL1        0.0084
     30 C         144.2360  131.5925  157.6240 C.3     1  UNL1        0.4186
     31 F         145.0482  130.4886  158.2335 F       1  UNL1       -0.1659
     32 F         145.3312  132.5695  157.9340 F       1  UNL1       -0.1659
     33 F         143.1409  130.6155  157.3139 F       1  UNL1       -0.1659
@<TRIPOS>BOND
     1    17    18    1
     2    18    16    1
     3     5    16    1
     4     5     6    1
     5     6     7    1
     6     7    11    1
     7    11    12    1
     8    11    13    1
     9    13    14    1
    10    13    15    1
    11     7     8    1
    12     8     9    1
    13     9    10    1
    14    10     1    1
    15     1     2   am
    16     2     3    2
    17     2    19    1
    18    19    20    1
    19    20    21   am
    20    21    22    2
    21    21    24    1
    22    24    25   ar
    23    25    26   ar
    24    26    27   ar
    25    27    28   ar
    26    28    30    1
    27    30    31    1
    28    30    32    1
    29    30    33    1
    30    28    29   ar
    31    10     5    1
    32    29    24   ar
    33     1     4    1
    34    20    23    1
@<TRIPOS>MOLECULE
*****
 33 34 0 0 0
SMALL
GASTEIGER

@<TRIPOS>ATOM
      1 N         141.5214  144.2799  161.2821 N.am    1  UNL1       -0.3045
      2 C         141.0637  145.2369  162.3425 C.2     1  UNL1        0.2425
      3 O         139.9789  146.2280  162.0408 O.2     1  UNL1       -0.2733
      4 H         142.2334  143.6294  161.4801 H       1  UNL1        0.1494
      5 C         139.8456  143.3066  159.5516 C.3     1  UNL1        0.0489
      6 C         139.2185  143.3406  158.1895 C.3     1  UNL1        0.0201
      7 C         139.6400  144.3819  157.1955 C.3     1  UNL1        0.0577
      8 C         140.6886  145.3892  157.5637 C.3     1  UNL1        0.0177
      9 C         141.3157  145.3552  158.9259 C.3     1  UNL1        0.0210
     10 C         140.8942  144.3139  159.9198 C.3     1  UNL1        0.0741
     11 N         139.0129  144.4159  155.8333 N.3     1  UNL1       -0.2741
     12 C         139.2262  145.6010  154.9388 C.3     1  UNL1        0.0896
     13 C         138.1725  143.2649  155.3656 C.3     1  UNL1        0.0576
     14 C         136.6776  143.3382  155.4660 C.3     1  UNL1        0.0173
     15 C         138.8268  142.0405  154.7976 C.3     1  UNL1        0.0173
     16 C         139.4241  142.2652  160.5456 C.3     1  UNL1        0.1439
     17 C         137.8237  142.8934  162.4934 C.3     1  UNL1        0.1741
     18 O         139.2111  142.6419  161.9818 O.3     1  UNL1       -0.3510
     19 C         141.6909  145.2029  163.7048 C.3     1  UNL1        0.1759
     20 N         141.5315  143.9908  164.5738 N.am    1  UNL1       -0.2931
     21 C         140.2458  143.7603  165.3110 C.2     1  UNL1        0.2462
     22 O         139.1193  144.7421  165.1793 O.2     1  UNL1       -0.2701
     23 H         142.2708  143.3464  164.6602 H       1  UNL1        0.1502
     24 C         140.0863  142.5481  166.1801 C.ar    1  UNL1        0.0533
     25 C         140.4429  142.6165  167.6355 C.ar    1  UNL1        0.0045
     26 C         140.2835  141.4044  168.5044 C.ar    1  UNL1        0.0001
     27 C         139.7675  140.1238  167.9180 C.ar    1  UNL1        0.0039
     28 C         139.4110  140.0553  166.4627 C.ar    1  UNL1        0.0716
     29 C         139.5704  141.2675  165.5937 C.ar    1  UNL1        0.0084
     30 C         138.8950  138.7747  165.8763 C.3     1  UNL1        0.4186
     31 F         138.3791  137.4941  165.2899 F       1  UNL1       -0.1659
     32 F         140.2595  138.4751  165.3300 F       1  UNL1       -0.1659
     33 F         137.5305  139.0744  166.4225 F       1  UNL1       -0.1659
@<TRIPOS>BOND
     1    17    18    1
     2    18    16    1
     3     5    16    1
     4     5     6    1
     5     6     7    1
     6     7    11    1
     7    11    12    1
     8    11    13    1
     9    13    14    1
    10    13    15    1
    11     7     8    1
    12     8     9    1
    13     9    10    1
    14    10     1    1
    15     1     2   am
    16     2     3    2
    17     2    19    1
    18    19    20    1
    19    20    21   am
    20    21    22    2
    21    21    24    1
    22    24    25   ar
    23    25    26   ar
    24    26    27   ar
    25    27    28   ar
    26    28    30    1
    27    30    31    1
    28    30    32    1
    29    30    33    1
    30    28    29   ar
    31    10     5    1
    32    29    24   ar
    33     1     4    1
    34    20    23    1
@<TRIPOS>MOLECULE
*****
 33 34 0 0 0
SMALL
GASTEIGER

@<TRIPOS>ATOM
      1 N         141.4725  139.6827  159.2075 N.am    1  UNL1       -0.3045
      2 C         142.5411  139.1497  158.2998 C.2     1  UNL1        0.2425
      3 O         143.9858  139.2939  158.6765 O.2     1  UNL1       -0.2733
      4 H         140.5243  139.5880  158.9603 H       1  UNL1        0.1494
      5 C         141.8700  139.5796  161.7730 C.3     1  UNL1        0.0489
      6 C         142.2462  140.2568  163.0574 C.3     1  UNL1        0.0201
      7 C         142.6010  141.7142  163.0610 C.3     1  UNL1        0.0577
      8 C         142.5796  142.4945  161.7802 C.3     1  UNL1        0.0177
      9 C         142.2034  141.8173  160.4957 C.3     1  UNL1        0.0210
     10 C         141.8487  140.3599  160.4921 C.3     1  UNL1        0.0741
     11 N         142.9771  142.3914  164.3456 N.3     1  UNL1       -0.2741
     12 C         141.9137  142.7685  165.3340 C.3     1  UNL1        0.0896
     13 C         144.4166  142.6914  164.6417 C.3     1  UNL1        0.0576
     14 C         145.5006  141.8909  163.9826 C.3     1  UNL1        0.0173
     15 C         144.7723  143.7920  165.5969 C.3     1  UNL1        0.0173
     16 C         141.5153  138.1222  161.7694 C.3     1  UNL1        0.1439
     17 C         138.9501  137.9860  162.1580 C.3     1  UNL1        0.1741
     18 O         140.1544  137.6826  161.3169 O.3     1  UNL1       -0.3510
     19 C         142.1649  138.4726  157.0152 C.3     1  UNL1        0.1759
     20 N         142.0065  136.9816  156.9718 N.am    1  UNL1       -0.2931
     21 C         143.0991  136.1277  156.3999 C.2     1  UNL1        0.2462
     22 O         144.3501  136.7648  155.8715 O.2     1  UNL1       -0.2701
     23 H         141.1855  136.5635  157.3186 H       1  UNL1        0.1502
     24 C         142.9408  134.6367  156.3565 C.ar    1  UNL1        0.0533
     25 C         141.8346  134.0231  155.5503 C.ar    1  UNL1        0.0045
     26 C         141.6763  132.5322  155.5069 C.ar    1  UNL1        0.0001
     27 C         142.6242  131.6548  156.2696 C.ar    1  UNL1        0.0039
     28 C         143.7303  132.2683  157.0757 C.ar    1  UNL1        0.0716
     29 C         143.8886  133.7593  157.1192 C.ar    1  UNL1        0.0084
     30 C         144.6782  131.3909  157.8384 C.3     1  UNL1        0.4186
     31 F         145.6260  130.5135  158.6011 F       1  UNL1       -0.1659
     32 F         143.7380  130.2335  157.6755 F       1  UNL1       -0.1659
     33 F         145.6184  132.5482  158.0014 F       1  UNL1       -0.1659
@<TRIPOS>BOND
     1    17    18    1
     2    18    16    1
     3     5    16    1
     4     5     6    1
     5     6     7    1
     6     7    11    1
     7    11    12    1
     8    11    13    1
     9    13    14    1
    10    13    15    1
    11     7     8    1
    12     8     9    1
    13     9    10    1
    14    10     1    1
    15     1     2   am
    16     2     3    2
    17     2    19    1
    18    19    20    1
    19    20    21   am
    20    21    22    2
    21    21    24    1
    22    24    25   ar
    23    25    26   ar
    24    26    27   ar
    25    27    28   ar
    26    28    30    1
    27    30    31    1
    28    30    32    1
    29    30    33    1
    30    28    29   ar
    31    10     5    1
    32    29    24   ar
    33     1     4    1
    34    20    23    1
@<TRIPOS>MOLECULE
*****
 33 34 0 0 0
SMALL
GASTEIGER

@<TRIPOS>ATOM
      1 N         138.1978  139.8681  164.1324 N.am    1  UNL1       -0.3045
      2 C         138.6909  138.6881  163.3487 C.2     1  UNL1        0.2425
      3 O         139.8085  137.8445  163.8866 O.2     1  UNL1       -0.2733
      4 H         137.4643  140.4218  163.7794 H       1  UNL1        0.1494
      5 C         139.7722  141.3605  165.5621 C.3     1  UNL1        0.0489
      6 C         140.3967  141.6970  166.8838 C.3     1  UNL1        0.0201
      7 C         140.0712  140.8777  168.0974 C.3     1  UNL1        0.0577
      8 C         139.1214  139.7219  167.9893 C.3     1  UNL1        0.0177
      9 C         138.4969  139.3854  166.6677 C.3     1  UNL1        0.0210
     10 C         138.8223  140.2047  165.4541 C.3     1  UNL1        0.0741
     11 N         140.6958  141.2143  169.4191 N.3     1  UNL1       -0.2741
     12 C         140.6838  140.2087  170.5320 C.3     1  UNL1        0.0896
     13 C         141.3322  142.5564  169.6278 C.3     1  UNL1        0.0576
     14 C         140.4741  143.7709  169.8248 C.3     1  UNL1        0.0173
     15 C         142.8267  142.6842  169.6394 C.3     1  UNL1        0.0173
     16 C         140.0976  142.1798  164.3485 C.3     1  UNL1        0.1439
     17 C         141.8717  140.7157  163.1408 C.3     1  UNL1        0.1741
     18 O         140.5998  141.5100  163.1040 O.3     1  UNL1       -0.3510
     19 C         138.0664  138.3515  162.0270 C.3     1  UNL1        0.1759
     20 N         138.4286  139.1404  160.8038 N.am    1  UNL1       -0.2931
     21 C         138.0342  140.5837  160.6982 C.2     1  UNL1        0.2462
     22 O         137.2775  141.2381  161.8159 O.2     1  UNL1       -0.2701
     23 H         138.9252  138.7109  160.0702 H       1  UNL1        0.1502
     24 C         138.3963  141.3727  159.4749 C.ar    1  UNL1        0.0533
     25 C         137.9266  140.9200  158.1242 C.ar    1  UNL1        0.0045
     26 C         138.2888  141.7090  156.9010 C.ar    1  UNL1        0.0001
     27 C         139.1207  142.9507  157.0285 C.ar    1  UNL1        0.0039
     28 C         139.5905  143.4033  158.3792 C.ar    1  UNL1        0.0716
     29 C         139.2283  142.6143  159.6024 C.ar    1  UNL1        0.0084
     30 C         140.4224  144.6449  158.5067 C.3     1  UNL1        0.4186
     31 F         141.2543  145.8866  158.6342 F       1  UNL1       -0.1659
     32 F         140.9802  144.4121  157.1339 F       1  UNL1       -0.1659
     33 F         139.8645  144.8778  159.8795 F       1  UNL1       -0.1659
@<TRIPOS>BOND
     1    17    18    1
     2    18    16    1
     3     5    16    1
     4     5     6    1
     5     6     7    1
     6     7    11    1
     7    11    12    1
     8    11    13    1
     9    13    14    1
    10    13    15    1
    11     7     8    1
    12     8     9    1
    13     9    10    1
    14    10     1    1
    15     1     2   am
    16     2     3    2
    17     2    19    1
    18    19    20    1
    19    20    21   am
    20    21    22    2
    21    21    24    1
    22    24    25   ar
    23    25    26   ar
    24    26    27   ar
    25    27    28   ar
    26    28    30    1
    27    30    31    1
    28    30    32    1
    29    30    33    1
    30    28    29   ar
    31    10     5    1
    32    29    24   ar
    33     1     4    1
    34    20    23    1
@<TRIPOS>MOLECULE
*****
 33 34 0 0 0
SMALL
GASTEIGER

@<TRIPOS>ATOM
      1 N         142.4149  137.1763  156.6147 N.am    1  UNL1       -0.3045
      2 C         143.5904  137.9950  156.1698 C.2     1  UNL1        0.2425
      3 O         144.7818  137.3236  155.5535 O.2     1  UNL1       -0.2733
      4 H         141.6330  137.6169  157.0192 H       1  UNL1        0.1494
      5 C         141.5172  135.0360  155.4472 C.3     1  UNL1        0.0489
      6 C         141.5331  133.5459  155.2758 C.3     1  UNL1        0.0201
      7 C         142.4627  132.7060  156.1008 C.3     1  UNL1        0.0577
      8 C         143.3763  133.3562  157.0970 C.3     1  UNL1        0.0177
      9 C         143.3604  134.8462  157.2683 C.3     1  UNL1        0.0210
     10 C         142.4308  135.6861  156.4434 C.3     1  UNL1        0.0741
     11 N         142.4786  131.2158  155.9294 N.3     1  UNL1       -0.2741
     12 C         141.3463  130.5299  155.2241 C.3     1  UNL1        0.0896
     13 C         143.6266  130.4117  156.4634 C.3     1  UNL1        0.0576
     14 C         143.5087  129.7270  157.7929 C.3     1  UNL1        0.0173
     15 C         144.8928  130.2922  155.6680 C.3     1  UNL1        0.0173
     16 C         140.5876  135.8759  154.6222 C.3     1  UNL1        0.1439
     17 C         141.9277  136.9168  152.6549 C.3     1  UNL1        0.1741
     18 O         141.1087  137.0831  153.9005 O.3     1  UNL1       -0.3510
     19 C         143.5745  139.4851  156.3411 C.3     1  UNL1        0.1759
     20 N         144.1367  140.1028  157.5870 N.am    1  UNL1       -0.2931
     21 C         143.3450  140.0755  158.8607 C.2     1  UNL1        0.2462
     22 O         141.9910  139.4305  158.8885 O.2     1  UNL1       -0.2701
     23 H         145.0254  140.5262  157.5688 H       1  UNL1        0.1502
     24 C         143.9072  140.6932  160.1067 C.ar    1  UNL1        0.0533
     25 C         144.2958  142.1420  160.1161 C.ar    1  UNL1        0.0045
     26 C         144.8580  142.7596  161.3620 C.ar    1  UNL1        0.0001
     27 C         145.0316  141.9285  162.5986 C.ar    1  UNL1        0.0039
     28 C         144.6430  140.4798  162.5893 C.ar    1  UNL1        0.0716
     29 C         144.0808  139.8622  161.3433 C.ar    1  UNL1        0.0084
     30 C         144.8166  139.6487  163.8259 C.3     1  UNL1        0.4186
     31 F         144.9901  138.8177  165.0625 F       1  UNL1       -0.1659
     32 F         144.0571  138.5283  163.1795 F       1  UNL1       -0.1659
     33 F         145.5760  140.7692  164.4723 F       1  UNL1       -0.1659
@<TRIPOS>BOND
     1    17    18    1
     2    18    16    1
     3     5    16    1
     4     5     6    1
     5     6     7    1
     6     7    11    1
     7    11    12    1
     8    11    13    1
     9    13    14    1
    10    13    15    1
    11     7     8    1
    12     8     9    1
    13     9    10    1
    14    10     1    1
    15     1     2   am
    16     2     3    2
    17     2    19    1
    18    19    20    1
    19    20    21   am
    20    21    22    2
    21    21    24    1
    22    24    25   ar
    23    25    26   ar
    24    26    27   ar
    25    27    28   ar
    26    28    30    1
    27    30    31    1
    28    30    32    1
    29    30    33    1
    30    28    29   ar
    31    10     5    1
    32    29    24   ar
    33     1     4    1
    34    20    23    1
@<TRIPOS>MOLECULE
*****
 33 34 0 0 0
SMALL
GASTEIGER

@<TRIPOS>ATOM
      1 N         140.3685  138.2924  159.3037 N.am    1  UNL1       -0.3045
      2 C         139.6042  138.7436  158.0945 C.2     1  UNL1        0.2425
      3 O         138.4394  139.6761  158.2484 O.2     1  UNL1       -0.2733
      4 H         141.1330  137.6804  159.2027 H       1  UNL1        0.1494
      5 C         140.8472  139.7343  161.4113 C.3     1  UNL1        0.0489
      6 C         140.4467  140.2154  162.7744 C.3     1  UNL1        0.0201
      7 C         139.1671  139.7360  163.3930 C.3     1  UNL1        0.0577
      8 C         138.2879  138.7754  162.6485 C.3     1  UNL1        0.0177
      9 C         138.6884  138.2942  161.2855 C.3     1  UNL1        0.0210
     10 C         139.9681  138.7736  160.6668 C.3     1  UNL1        0.0741
     11 N         138.7666  140.2172  164.7561 N.3     1  UNL1       -0.2741
     12 C         138.3009  139.2363  165.7909 C.3     1  UNL1        0.0896
     13 C         138.8319  141.6794  165.0845 C.3     1  UNL1        0.0576
     14 C         137.8071  142.6205  164.5239 C.3     1  UNL1        0.0173
     15 C         139.9221  142.2005  165.9733 C.3     1  UNL1        0.0173
     16 C         142.1268  140.2137  160.7926 C.3     1  UNL1        0.1439
     17 C         143.6095  138.1766  161.4265 C.3     1  UNL1        0.1741
     18 O         143.4396  139.6575  161.2585 O.3     1  UNL1       -0.3510
     19 C         140.0046  138.2624  156.7314 C.3     1  UNL1        0.1759
     20 N         140.4211  136.8352  156.5322 N.am    1  UNL1       -0.2931
     21 C         141.8772  136.4765  156.4994 C.2     1  UNL1        0.2462
     22 O         142.9168  137.5449  156.6658 O.2     1  UNL1       -0.2701
     23 H         139.7388  136.1340  156.4231 H       1  UNL1        0.1502
     24 C         142.2937  135.0492  156.3003 C.ar    1  UNL1        0.0533
     25 C         141.5608  134.1841  155.3183 C.ar    1  UNL1        0.0045
     26 C         141.9773  132.7569  155.1193 C.ar    1  UNL1        0.0001
     27 C         143.1268  132.1949  155.9021 C.ar    1  UNL1        0.0039
     28 C         143.8597  133.0601  156.8841 C.ar    1  UNL1        0.0716
     29 C         143.4432  134.4872  157.0832 C.ar    1  UNL1        0.0084
     30 C         145.0092  132.4981  157.6670 C.3     1  UNL1        0.4186
     31 F         146.1586  131.9361  158.4498 F       1  UNL1       -0.1659
     32 F         145.2761  131.5129  156.5678 F       1  UNL1       -0.1659
     33 F         144.7423  133.4833  158.7661 F       1  UNL1       -0.1659
@<TRIPOS>BOND
     1    17    18    1
     2    18    16    1
     3     5    16    1
     4     5     6    1
     5     6     7    1
     6     7    11    1
     7    11    12    1
     8    11    13    1
     9    13    14    1
    10    13    15    1
    11     7     8    1
    12     8     9    1
    13     9    10    1
    14    10     1    1
    15     1     2   am
    16     2     3    2
    17     2    19    1
    18    19    20    1
    19    20    21   am
    20    21    22    2
    21    21    24    1
    22    24    25   ar
    23    25    26   ar
    24    26    27   ar
    25    27    28   ar
    26    28    30    1
    27    30    31    1
    28    30    32    1
    29    30    33    1
    30    28    29   ar
    31    10     5    1
    32    29    24   ar
    33     1     4    1
    34    20    23    1
@<TRIPOS>MOLECULE
*****
 33 34 0 0 0
SMALL
GASTEIGER

@<TRIPOS>ATOM
      1 N         141.3130  142.8562  160.4847 N.am    1  UNL1       -0.3045
      2 C         141.5965  143.8843  161.5395 C.2     1  UNL1        0.2425
      3 O         142.9487  144.5292  161.6141 O.2     1  UNL1       -0.2733
      4 H         140.4255  142.4329  160.4358 H       1  UNL1        0.1494
      5 C         143.1723  141.2149  159.7106 C.3     1  UNL1        0.0489
      6 C         144.2411  140.8316  158.7304 C.3     1  UNL1        0.0201
      7 C         144.5193  141.7064  157.5441 C.3     1  UNL1        0.0577
      8 C         143.7289  142.9644  157.3380 C.3     1  UNL1        0.0177
      9 C         142.6601  143.3476  158.3182 C.3     1  UNL1        0.0210
     10 C         142.3818  142.4729  159.5045 C.3     1  UNL1        0.0741
     11 N         145.5882  141.3231  156.5638 N.3     1  UNL1       -0.2741
     12 C         145.4129  140.1097  155.6995 C.3     1  UNL1        0.0896
     13 C         146.8322  142.1531  156.4480 C.3     1  UNL1        0.0576
     14 C         147.6428  142.1174  155.1863 C.3     1  UNL1        0.0173
     15 C         147.2656  143.0188  157.5937 C.3     1  UNL1        0.0173
     16 C         142.8940  140.3401  160.8969 C.3     1  UNL1        0.1439
     17 C         144.5012  141.0155  162.8232 C.3     1  UNL1        0.1741
     18 O         143.1091  140.8675  162.2845 O.3     1  UNL1       -0.3510
     19 C         140.5277  144.2676  162.5197 C.3     1  UNL1        0.1759
     20 N         140.4083  143.5356  163.8235 N.am    1  UNL1       -0.2931
     21 C         139.8086  142.1613  163.8597 C.2     1  UNL1        0.2462
     22 O         139.3282  141.5189  162.5922 O.2     1  UNL1       -0.2701
     23 H         140.7235  143.9573  164.6554 H       1  UNL1        0.1502
     24 C         139.6892  141.4292  165.1636 C.ar    1  UNL1        0.0533
     25 C         140.3081  142.0013  166.4044 C.ar    1  UNL1        0.0045
     26 C         140.1887  141.2693  167.7081 C.ar    1  UNL1        0.0001
     27 C         139.4503  139.9651  167.7711 C.ar    1  UNL1        0.0039
     28 C         138.8314  139.3930  166.5303 C.ar    1  UNL1        0.0716
     29 C         138.9508  140.1250  165.2265 C.ar    1  UNL1        0.0084
     30 C         138.0931  138.0888  166.5933 C.3     1  UNL1        0.4186
     31 F         137.3547  136.7846  166.6562 F       1  UNL1       -0.1659
     32 F         138.9454  137.5526  165.4815 F       1  UNL1       -0.1659
     33 F         137.2407  138.6250  167.7050 F       1  UNL1       -0.1659
@<TRIPOS>BOND
     1    17    18    1
     2    18    16    1
     3     5    16    1
     4     5     6    1
     5     6     7    1
     6     7    11    1
     7    11    12    1
     8    11    13    1
     9    13    14    1
    10    13    15    1
    11     7     8    1
    12     8     9    1
    13     9    10    1
    14    10     1    1
    15     1     2   am
    16     2     3    2
    17     2    19    1
    18    19    20    1
    19    20    21   am
    20    21    22    2
    21    21    24    1
    22    24    25   ar
    23    25    26   ar
    24    26    27   ar
    25    27    28   ar
    26    28    30    1
    27    30    31    1
    28    30    32    1
    29    30    33    1
    30    28    29   ar
    31    10     5    1
    32    29    24   ar
    33     1     4    1
    34    20    23    1
