@<TRIPOS>MOLECULE
*****
 38 40 0 0 0
SMALL
GASTEIGER

@<TRIPOS>ATOM
      1 N         143.1172  139.9637  162.2070 N.3     1  UNL1       -0.2665
      2 C         144.4807  140.3745  161.7358 C.3     1  UNL1        0.1058
      3 C         145.1450  141.5837  162.3246 C.3     1  UNL1        0.1700
      4 O         145.3212  142.8211  161.4954 O.3     1  UNL1       -0.3793
      5 H         144.9535  142.6723  160.6102 H       1  UNL1        0.2106
      6 C         145.6331  141.5553  163.7427 C.3     1  UNL1        0.2358
      7 O         145.1963  142.6174  164.7076 O.3     1  UNL1       -0.4728
      8 C         141.2275  144.6651  164.1548 C.ar    1  UNL1        0.0646
      9 C         142.4959  145.3758  163.7860 C.ar    1  UNL1        0.0190
     10 C         143.8189  144.6932  163.9702 C.ar    1  UNL1        0.0382
     11 C         143.8734  143.3000  164.5234 C.ar    1  UNL1        0.1388
     12 C         142.6049  142.5894  164.8922 C.ar    1  UNL1        0.0382
     13 C         141.2820  143.2719  164.7079 C.ar    1  UNL1        0.0190
     14 N         139.9046  145.3477  163.9705 N.pl3   1  UNL1       -0.2187
     15 H         139.8711  146.2780  163.6499 H       1  UNL1        0.1734
     16 C         137.3608  143.8782  164.5788 C.3     1  UNL1        0.1996
     17 S         138.6328  144.6130  164.2747 S.O2    1  UNL1        0.0558
     18 O         138.5461  144.1708  162.8440 O.2     1  UNL1       -0.1544
     19 O         138.7194  145.0552  165.7053 O.2     1  UNL1       -0.1544
     20 C         142.9507  138.7195  163.0280 C.3     1  UNL1        0.0771
     21 C         142.8164  138.8169  164.5188 C.3     1  UNL1        0.0437
     22 C         141.4604  138.7439  165.1560 C.ar    1  UNL1       -0.0199
     23 C         140.4222  137.8117  164.6055 C.ar    1  UNL1       -0.0033
     24 C         139.0663  137.7387  165.2427 C.ar    1  UNL1        0.0119
     25 C         138.7485  138.5979  166.4304 C.ar    1  UNL1        0.0682
     26 CL        137.3925  138.5249  167.0677 Cl      1  UNL1       -0.0814
     27 C         139.7867  139.5301  166.9810 C.ar    1  UNL1        0.0679
     28 CL        139.4690  140.3894  168.1687 Cl      1  UNL1       -0.0814
     29 C         141.1426  139.6031  166.3438 C.ar    1  UNL1        0.0080
     30 C         141.9201  140.7973  161.8572 C.3     1  UNL1        0.0993
     31 C         140.5547  140.1767  161.8348 C.ar    1  UNL1       -0.0031
     32 C         140.3134  138.9234  161.0466 C.ar    1  UNL1       -0.0027
     33 C         138.9480  138.3028  161.0241 C.ar    1  UNL1        0.0028
     34 C         137.8239  138.9354  161.7899 C.ar    1  UNL1        0.0366
     35 C         138.0653  140.1886  162.5781 C.ar    1  UNL1        0.1334
     36 O         136.9412  140.8211  163.3438 O.3     1  UNL1       -0.5055
     37 C         139.4307  140.8092  162.6005 C.ar    1  UNL1        0.0337
     38 H         136.0883  140.4334  163.3298 H       1  UNL1        0.2922
@<TRIPOS>BOND
     1    16    17    1
     2    17    18    2
     3    17    19    2
     4    17    14    1
     5    14     8    1
     6     8     9   ar
     7     9    10   ar
     8    10    11   ar
     9    11     7    1
    10     7     6    1
    11     6     3    1
    12     3     4    1
    13     3     2    1
    14     2     1    1
    15     1    20    1
    16    20    21    1
    17    21    22    1
    18    22    23   ar
    19    23    24   ar
    20    24    25   ar
    21    25    26    1
    22    25    27   ar
    23    27    28    1
    24    27    29   ar
    25     1    30    1
    26    30    31    1
    27    31    32   ar
    28    32    33   ar
    29    33    34   ar
    30    34    35   ar
    31    35    36    1
    32    35    37   ar
    33    11    12   ar
    34    12    13   ar
    35    13     8   ar
    36    29    22   ar
    37    37    31   ar
    38    14    15    1
    39     4     5    1
    40    36    38    1
@<TRIPOS>MOLECULE
*****
 38 40 0 0 0
SMALL
GASTEIGER

@<TRIPOS>ATOM
      1 N         139.9027  139.5061  166.0554 N.3     1  UNL1       -0.2665
      2 C         140.6606  139.9141  167.2839 C.3     1  UNL1        0.1058
      3 C         142.1541  140.0450  167.2347 C.3     1  UNL1        0.1700
      4 O         143.0147  139.1271  168.0512 O.3     1  UNL1       -0.3793
      5 H         142.4517  138.5139  168.5492 H       1  UNL1        0.2106
      6 C         142.7869  141.0940  166.3691 C.3     1  UNL1        0.2358
      7 O         142.9556  140.8512  164.8986 O.3     1  UNL1       -0.4728
      8 C         142.0493  144.1343  161.9575 C.ar    1  UNL1        0.0646
      9 C         141.5969  142.7316  161.6787 C.ar    1  UNL1        0.0190
     10 C         141.8990  141.6373  162.6591 C.ar    1  UNL1        0.0382
     11 C         142.6535  141.9455  163.9182 C.ar    1  UNL1        0.1388
     12 C         143.1060  143.3482  164.1970 C.ar    1  UNL1        0.0382
     13 C         142.8039  144.4426  163.2167 C.ar    1  UNL1        0.0190
     14 N         141.7473  145.2287  160.9772 N.pl3   1  UNL1       -0.2187
     15 H         142.0199  146.1542  161.1731 H       1  UNL1        0.1734
     16 C         140.3124  144.5973  158.4193 C.3     1  UNL1        0.1996
     17 S         141.0299  144.9130  159.6983 S.O2    1  UNL1        0.0558
     18 O         139.7134  145.1344  160.3821 O.2     1  UNL1       -0.1544
     19 O         142.3464  144.6915  159.0144 O.2     1  UNL1       -0.1544
     20 C         140.3994  138.3709  165.2101 C.3     1  UNL1        0.0771
     21 C         139.6866  138.0141  163.9395 C.3     1  UNL1        0.0437
     22 C         140.3958  138.1325  162.6230 C.ar    1  UNL1       -0.0199
     23 C         139.6297  138.5091  161.3896 C.ar    1  UNL1       -0.0033
     24 C         140.3389  138.6275  160.0732 C.ar    1  UNL1        0.0119
     25 C         141.8142  138.3693  159.9902 C.ar    1  UNL1        0.0682
     26 CL        142.5234  138.4877  158.6737 Cl      1  UNL1       -0.0814
     27 C         142.5803  137.9927  161.2236 C.ar    1  UNL1        0.0679
     28 CL        144.0556  137.7345  161.1405 Cl      1  UNL1       -0.0814
     29 C         141.8711  137.8743  162.5400 C.ar    1  UNL1        0.0080
     30 C         138.6480  140.2335  165.6722 C.3     1  UNL1        0.0993
     31 C         138.7322  141.5781  165.0128 C.ar    1  UNL1       -0.0031
     32 C         139.4495  142.7047  165.6957 C.ar    1  UNL1       -0.0027
     33 C         139.5337  144.0494  165.0364 C.ar    1  UNL1        0.0028
     34 C         138.9006  144.2675  163.6941 C.ar    1  UNL1        0.0366
     35 C         138.1834  143.1409  163.0112 C.ar    1  UNL1        0.1334
     36 O         137.5503  143.3590  161.6690 O.3     1  UNL1       -0.5055
     37 C         138.0991  141.7962  163.6706 C.ar    1  UNL1        0.0337
     38 H         137.6030  144.1990  161.2571 H       1  UNL1        0.2922
@<TRIPOS>BOND
     1    16    17    1
     2    17    18    2
     3    17    19    2
     4    17    14    1
     5    14     8    1
     6     8     9   ar
     7     9    10   ar
     8    10    11   ar
     9    11     7    1
    10     7     6    1
    11     6     3    1
    12     3     4    1
    13     3     2    1
    14     2     1    1
    15     1    20    1
    16    20    21    1
    17    21    22    1
    18    22    23   ar
    19    23    24   ar
    20    24    25   ar
    21    25    26    1
    22    25    27   ar
    23    27    28    1
    24    27    29   ar
    25     1    30    1
    26    30    31    1
    27    31    32   ar
    28    32    33   ar
    29    33    34   ar
    30    34    35   ar
    31    35    36    1
    32    35    37   ar
    33    11    12   ar
    34    12    13   ar
    35    13     8   ar
    36    29    22   ar
    37    37    31   ar
    38    14    15    1
    39     4     5    1
    40    36    38    1
@<TRIPOS>MOLECULE
*****
 38 40 0 0 0
SMALL
GASTEIGER

@<TRIPOS>ATOM
      1 N         137.8737  141.2514  161.6232 N.3     1  UNL1       -0.2665
      2 C         137.8656  139.7777  161.3435 C.3     1  UNL1        0.1058
      3 C         138.8844  138.8861  161.9894 C.3     1  UNL1        0.1700
      4 O         140.1000  138.4575  161.2222 O.3     1  UNL1       -0.3793
      5 H         140.0727  138.8420  160.3320 H       1  UNL1        0.2106
      6 C         138.6876  138.4230  163.4025 C.3     1  UNL1        0.2358
      7 O         139.8709  138.0198  164.2313 O.3     1  UNL1       -0.4728
      8 C         140.7013  140.1043  168.1320 C.ar    1  UNL1        0.0646
      9 C         139.2870  139.8293  167.7148 C.ar    1  UNL1        0.0190
     10 C         139.0102  139.1345  166.4145 C.ar    1  UNL1        0.0382
     11 C         140.1477  138.7146  165.5315 C.ar    1  UNL1        0.1388
     12 C         141.5620  138.9896  165.9487 C.ar    1  UNL1        0.0382
     13 C         141.8388  139.6844  167.2490 C.ar    1  UNL1        0.0190
     14 N         140.9781  140.7991  169.4322 N.pl3   1  UNL1       -0.2187
     15 H         141.3652  140.2975  170.1857 H       1  UNL1        0.1734
     16 C         140.3521  143.7173  169.7365 C.3     1  UNL1        0.1996
     17 S         140.6651  142.2581  169.5843 S.O2    1  UNL1        0.0558
     18 O         139.4867  141.9154  170.4468 O.2     1  UNL1       -0.1544
     19 O         141.8435  142.6008  168.7219 O.2     1  UNL1       -0.1544
     20 C         138.4621  142.2015  160.6227 C.3     1  UNL1        0.0771
     21 C         139.9422  142.2130  160.3796 C.3     1  UNL1        0.0437
     22 C         140.8450  142.9962  161.2861 C.ar    1  UNL1       -0.0199
     23 C         140.4234  144.3489  161.7784 C.ar    1  UNL1       -0.0033
     24 C         141.3262  145.1320  162.6848 C.ar    1  UNL1        0.0119
     25 C         142.6507  144.5624  163.0988 C.ar    1  UNL1        0.0682
     26 CL        143.5535  145.3456  164.0053 Cl      1  UNL1       -0.0814
     27 C         143.0723  143.2097  162.6065 C.ar    1  UNL1        0.0679
     28 CL        144.3968  142.6402  163.0205 Cl      1  UNL1       -0.0814
     29 C         142.1695  142.4266  161.7001 C.ar    1  UNL1        0.0080
     30 C         137.2934  141.7749  162.9036 C.3     1  UNL1        0.0993
     31 C         138.1818  142.4391  163.9133 C.ar    1  UNL1       -0.0031
     32 C         139.5202  141.8459  164.2402 C.ar    1  UNL1       -0.0027
     33 C         140.4087  142.5101  165.2498 C.ar    1  UNL1        0.0028
     34 C         139.9587  143.7677  165.9327 C.ar    1  UNL1        0.0366
     35 C         138.6204  144.3609  165.6058 C.ar    1  UNL1        0.1334
     36 O         138.1704  145.6184  166.2885 O.3     1  UNL1       -0.5055
     37 C         137.7319  143.6966  164.5961 C.ar    1  UNL1        0.0337
     38 H         138.7254  146.0333  166.9193 H       1  UNL1        0.2922
@<TRIPOS>BOND
     1    16    17    1
     2    17    18    2
     3    17    19    2
     4    17    14    1
     5    14     8    1
     6     8     9   ar
     7     9    10   ar
     8    10    11   ar
     9    11     7    1
    10     7     6    1
    11     6     3    1
    12     3     4    1
    13     3     2    1
    14     2     1    1
    15     1    20    1
    16    20    21    1
    17    21    22    1
    18    22    23   ar
    19    23    24   ar
    20    24    25   ar
    21    25    26    1
    22    25    27   ar
    23    27    28    1
    24    27    29   ar
    25     1    30    1
    26    30    31    1
    27    31    32   ar
    28    32    33   ar
    29    33    34   ar
    30    34    35   ar
    31    35    36    1
    32    35    37   ar
    33    11    12   ar
    34    12    13   ar
    35    13     8   ar
    36    29    22   ar
    37    37    31   ar
    38    14    15    1
    39     4     5    1
    40    36    38    1
@<TRIPOS>MOLECULE
*****
 38 40 0 0 0
SMALL
GASTEIGER

@<TRIPOS>ATOM
      1 N         141.9807  144.0034  162.4202 N.3     1  UNL1       -0.2665
      2 C         141.0443  144.7644  161.5291 C.3     1  UNL1        0.1058
      3 C         139.9439  145.5897  162.1278 C.3     1  UNL1        0.1700
      4 O         140.1345  147.0644  162.3244 O.3     1  UNL1       -0.3793
      5 H         141.0173  147.3205  162.0145 H       1  UNL1        0.2106
      6 C         138.6531  144.9400  162.5298 C.3     1  UNL1        0.2358
      7 O         138.0418  143.8834  161.6581 O.3     1  UNL1       -0.4728
      8 C         138.5978  139.5338  162.6689 C.ar    1  UNL1        0.0646
      9 C         139.3691  140.1453  161.5371 C.ar    1  UNL1        0.0190
     10 C         139.1838  141.5952  161.2002 C.ar    1  UNL1        0.0382
     11 C         138.2271  142.4335  161.9951 C.ar    1  UNL1        0.1388
     12 C         137.4558  141.8220  163.1268 C.ar    1  UNL1        0.0382
     13 C         137.6411  140.3722  163.4638 C.ar    1  UNL1        0.0190
     14 N         138.7831  138.0839  163.0059 N.pl3   1  UNL1       -0.2187
     15 H         138.1262  137.4189  162.6968 H       1  UNL1        0.1734
     16 C         141.1553  137.2107  164.6214 C.3     1  UNL1        0.1996
     17 S         139.9691  137.6473  163.8136 S.O2    1  UNL1        0.0558
     18 O         140.6706  137.2266  162.5563 O.2     1  UNL1       -0.1544
     19 O         139.2677  138.0680  165.0710 O.2     1  UNL1       -0.1544
     20 C         141.6575  143.8305  163.8747 C.3     1  UNL1        0.0771
     21 C         140.8748  142.6354  164.3321 C.3     1  UNL1        0.0437
     22 C         141.1591  142.0201  165.6703 C.ar    1  UNL1       -0.0199
     23 C         142.5266  142.1387  166.2750 C.ar    1  UNL1       -0.0033
     24 C         142.8109  141.5233  167.6130 C.ar    1  UNL1        0.0119
     25 C         141.7276  140.7893  168.3464 C.ar    1  UNL1        0.0682
     26 CL        142.0119  140.1739  169.6845 Cl      1  UNL1       -0.0814
     27 C         140.3601  140.6707  167.7417 C.ar    1  UNL1        0.0679
     28 CL        139.2768  139.9367  168.4750 Cl      1  UNL1       -0.0814
     29 C         140.0758  141.2861  166.4036 C.ar    1  UNL1        0.0080
     30 C         143.2403  143.4152  161.8566 C.3     1  UNL1        0.0993
     31 C         143.8464  142.1965  162.4870 C.ar    1  UNL1       -0.0031
     32 C         144.9552  142.3420  163.4868 C.ar    1  UNL1       -0.0027
     33 C         145.5613  141.1233  164.1172 C.ar    1  UNL1        0.0028
     34 C         145.0586  139.7591  163.7478 C.ar    1  UNL1        0.0366
     35 C         143.9498  139.6137  162.7481 C.ar    1  UNL1        0.1334
     36 O         143.4472  138.2496  162.3788 O.3     1  UNL1       -0.5055
     37 C         143.3437  140.8324  162.1177 C.ar    1  UNL1        0.0337
     38 H         143.8258  137.4883  162.7725 H       1  UNL1        0.2922
@<TRIPOS>BOND
     1    16    17    1
     2    17    18    2
     3    17    19    2
     4    17    14    1
     5    14     8    1
     6     8     9   ar
     7     9    10   ar
     8    10    11   ar
     9    11     7    1
    10     7     6    1
    11     6     3    1
    12     3     4    1
    13     3     2    1
    14     2     1    1
    15     1    20    1
    16    20    21    1
    17    21    22    1
    18    22    23   ar
    19    23    24   ar
    20    24    25   ar
    21    25    26    1
    22    25    27   ar
    23    27    28    1
    24    27    29   ar
    25     1    30    1
    26    30    31    1
    27    31    32   ar
    28    32    33   ar
    29    33    34   ar
    30    34    35   ar
    31    35    36    1
    32    35    37   ar
    33    11    12   ar
    34    12    13   ar
    35    13     8   ar
    36    29    22   ar
    37    37    31   ar
    38    14    15    1
    39     4     5    1
    40    36    38    1
@<TRIPOS>MOLECULE
*****
 38 40 0 0 0
SMALL
GASTEIGER

@<TRIPOS>ATOM
      1 N         140.6542  139.4177  160.8287 N.3     1  UNL1       -0.2665
      2 C         141.6500  138.3370  161.1294 C.3     1  UNL1        0.1058
      3 C         141.9582  137.9760  162.5524 C.3     1  UNL1        0.1700
      4 O         141.3277  136.7642  163.1722 O.3     1  UNL1       -0.3793
      5 H         140.7528  136.3307  162.5222 H       1  UNL1        0.2106
      6 C         142.8970  138.8267  163.3555 C.3     1  UNL1        0.2358
      7 O         143.1499  138.5072  164.7991 O.3     1  UNL1       -0.4728
      8 C         142.7124  141.7159  167.9237 C.ar    1  UNL1        0.0646
      9 C         143.1519  142.0758  166.5355 C.ar    1  UNL1        0.0190
     10 C         143.2978  141.0063  165.4940 C.ar    1  UNL1        0.0382
     11 C         143.0040  139.5768  165.8406 C.ar    1  UNL1        0.1388
     12 C         142.5645  139.2168  167.2289 C.ar    1  UNL1        0.0382
     13 C         142.4187  140.2864  168.2704 C.ar    1  UNL1        0.0190
     14 N         142.5666  142.7854  168.9653 N.pl3   1  UNL1       -0.2187
     15 H         143.2989  143.4250  169.1199 H       1  UNL1        0.1734
     16 C         140.0435  142.9755  170.5772 C.3     1  UNL1        0.1996
     17 S         141.3051  142.8805  169.7712 S.O2    1  UNL1        0.0558
     18 O         142.0743  142.5461  171.0147 O.2     1  UNL1       -0.1544
     19 O         140.5358  143.2148  168.5276 O.2     1  UNL1       -0.1544
     20 C         139.2206  139.2515  161.2374 C.3     1  UNL1        0.0771
     21 C         138.8432  139.3054  162.6882 C.3     1  UNL1        0.0437
     22 C         138.8766  140.6123  163.4237 C.ar    1  UNL1       -0.0199
     23 C         139.6257  140.7254  164.7183 C.ar    1  UNL1       -0.0033
     24 C         139.6591  142.0323  165.4538 C.ar    1  UNL1        0.0119
     25 C         138.9433  143.2261  164.8947 C.ar    1  UNL1        0.0682
     26 CL        138.9767  144.5330  165.6302 Cl      1  UNL1       -0.0814
     27 C         138.1942  143.1130  163.6001 C.ar    1  UNL1        0.0679
     28 CL        137.4784  144.3067  163.0410 Cl      1  UNL1       -0.0814
     29 C         138.1608  141.8061  162.8646 C.ar    1  UNL1        0.0080
     30 C         141.0921  140.6647  160.1193 C.3     1  UNL1        0.0993
     31 C         141.1631  141.9653  160.8633 C.ar    1  UNL1       -0.0031
     32 C         141.9747  142.0667  162.1207 C.ar    1  UNL1       -0.0027
     33 C         142.0457  143.3672  162.8648 C.ar    1  UNL1        0.0028
     34 C         141.3050  144.5663  162.3514 C.ar    1  UNL1        0.0366
     35 C         140.4934  144.4649  161.0940 C.ar    1  UNL1        0.1334
     36 O         139.7528  145.6640  160.5807 O.3     1  UNL1       -0.5055
     37 C         140.4225  143.1644  160.3500 C.ar    1  UNL1        0.0337
     38 H         139.7971  146.4764  161.0454 H       1  UNL1        0.2922
@<TRIPOS>BOND
     1    16    17    1
     2    17    18    2
     3    17    19    2
     4    17    14    1
     5    14     8    1
     6     8     9   ar
     7     9    10   ar
     8    10    11   ar
     9    11     7    1
    10     7     6    1
    11     6     3    1
    12     3     4    1
    13     3     2    1
    14     2     1    1
    15     1    20    1
    16    20    21    1
    17    21    22    1
    18    22    23   ar
    19    23    24   ar
    20    24    25   ar
    21    25    26    1
    22    25    27   ar
    23    27    28    1
    24    27    29   ar
    25     1    30    1
    26    30    31    1
    27    31    32   ar
    28    32    33   ar
    29    33    34   ar
    30    34    35   ar
    31    35    36    1
    32    35    37   ar
    33    11    12   ar
    34    12    13   ar
    35    13     8   ar
    36    29    22   ar
    37    37    31   ar
    38    14    15    1
    39     4     5    1
    40    36    38    1
@<TRIPOS>MOLECULE
*****
 38 40 0 0 0
SMALL
GASTEIGER

@<TRIPOS>ATOM
      1 N         142.2295  144.3576  161.2285 N.3     1  UNL1       -0.2665
      2 C         140.9270  144.9824  160.8247 C.3     1  UNL1        0.1058
      3 C         140.0041  145.5349  161.8702 C.3     1  UNL1        0.1700
      4 O         140.0094  147.0036  162.1748 O.3     1  UNL1       -0.3793
      5 H         140.6621  147.4482  161.6116 H       1  UNL1        0.2106
      6 C         139.0759  144.6186  162.6111 C.3     1  UNL1        0.2358
      7 O         138.9757  144.7007  164.1054 O.3     1  UNL1       -0.4728
      8 C         139.7273  141.0420  166.6153 C.ar    1  UNL1        0.0646
      9 C         140.1649  142.3905  167.1052 C.ar    1  UNL1        0.0190
     10 C         139.9144  143.6100  166.2686 C.ar    1  UNL1        0.0382
     11 C         139.2262  143.4811  164.9421 C.ar    1  UNL1        0.1388
     12 C         138.7887  142.1326  164.4521 C.ar    1  UNL1        0.0382
     13 C         139.0392  140.9131  165.2887 C.ar    1  UNL1        0.0190
     14 N         139.9779  139.8225  167.4519 N.pl3   1  UNL1       -0.2187
     15 H         139.8895  138.9262  167.0543 H       1  UNL1        0.1734
     16 C         140.7483  140.1146  170.3365 C.3     1  UNL1        0.1996
     17 S         140.3631  139.9685  168.8942 S.O2    1  UNL1        0.0558
     18 O         138.9148  139.9445  169.2835 O.2     1  UNL1       -0.1544
     19 O         141.8115  139.9926  168.5049 O.2     1  UNL1       -0.1544
     20 C         142.9230  144.8110  162.4789 C.3     1  UNL1        0.0771
     21 C         142.7129  144.0678  163.7647 C.3     1  UNL1        0.0437
     22 C         143.3976  142.7525  163.9913 C.ar    1  UNL1       -0.0199
     23 C         144.8655  142.6139  163.7157 C.ar    1  UNL1       -0.0033
     24 C         145.5501  141.2986  163.9423 C.ar    1  UNL1        0.0119
     25 C         144.7669  140.1221  164.4446 C.ar    1  UNL1        0.0682
     26 CL        145.4517  138.8068  164.6712 Cl      1  UNL1       -0.0814
     27 C         143.2990  140.2608  164.7203 C.ar    1  UNL1        0.0679
     28 CL        142.5158  139.0842  165.2226 Cl      1  UNL1       -0.0814
     29 C         142.6144  141.5760  164.4937 C.ar    1  UNL1        0.0080
     30 C         142.8384  143.2793  160.3820 C.3     1  UNL1        0.0993
     31 C         142.6147  141.8372  160.7290 C.ar    1  UNL1       -0.0031
     32 C         141.2537  141.3702  161.1528 C.ar    1  UNL1       -0.0027
     33 C         141.0299  139.9281  161.4998 C.ar    1  UNL1        0.0028
     34 C         142.1673  138.9531  161.4231 C.ar    1  UNL1        0.0366
     35 C         143.5283  139.4201  160.9994 C.ar    1  UNL1        0.1334
     36 O         144.6655  138.4451  160.9227 O.3     1  UNL1       -0.5055
     37 C         143.7520  140.8622  160.6524 C.ar    1  UNL1        0.0337
     38 H         144.5258  137.5443  161.1395 H       1  UNL1        0.2922
@<TRIPOS>BOND
     1    16    17    1
     2    17    18    2
     3    17    19    2
     4    17    14    1
     5    14     8    1
     6     8     9   ar
     7     9    10   ar
     8    10    11   ar
     9    11     7    1
    10     7     6    1
    11     6     3    1
    12     3     4    1
    13     3     2    1
    14     2     1    1
    15     1    20    1
    16    20    21    1
    17    21    22    1
    18    22    23   ar
    19    23    24   ar
    20    24    25   ar
    21    25    26    1
    22    25    27   ar
    23    27    28    1
    24    27    29   ar
    25     1    30    1
    26    30    31    1
    27    31    32   ar
    28    32    33   ar
    29    33    34   ar
    30    34    35   ar
    31    35    36    1
    32    35    37   ar
    33    11    12   ar
    34    12    13   ar
    35    13     8   ar
    36    29    22   ar
    37    37    31   ar
    38    14    15    1
    39     4     5    1
    40    36    38    1
@<TRIPOS>MOLECULE
*****
 38 40 0 0 0
SMALL
GASTEIGER

@<TRIPOS>ATOM
      1 N         142.1008  139.5283  164.9179 N.3     1  UNL1       -0.2665
      2 C         142.4713  138.6763  163.7403 C.3     1  UNL1        0.1058
      3 C         141.4339  137.8171  163.0803 C.3     1  UNL1        0.1700
      4 O         141.7195  137.1843  161.7506 O.3     1  UNL1       -0.3793
      5 H         142.6119  137.4300  161.4606 H       1  UNL1        0.2106
      6 C         140.1109  137.5906  163.7500 C.3     1  UNL1        0.2358
      7 O         138.8467  138.0544  163.0892 O.3     1  UNL1       -0.4728
      8 C         138.1565  142.4447  162.3832 C.ar    1  UNL1        0.0646
      9 C         137.6980  141.8096  163.6624 C.ar    1  UNL1        0.0190
     10 C         137.9281  140.3462  163.8977 C.ar    1  UNL1        0.0382
     11 C         138.6166  139.5178  162.8539 C.ar    1  UNL1        0.1388
     12 C         139.0751  140.1529  161.5746 C.ar    1  UNL1        0.0382
     13 C         138.8450  141.6163  161.3393 C.ar    1  UNL1        0.0190
     14 N         137.9264  143.9082  162.1478 N.pl3   1  UNL1       -0.2187
     15 H         137.0296  144.2323  161.9029 H       1  UNL1        0.1734
     16 C         140.1989  145.8472  162.4234 C.3     1  UNL1        0.1996
     17 S         139.0626  144.8777  162.2856 S.O2    1  UNL1        0.0558
     18 O         138.8285  144.9417  163.7658 O.2     1  UNL1       -0.1544
     19 O         139.2967  144.8136  160.8054 O.2     1  UNL1       -0.1544
     20 C         142.3539  139.0333  166.3110 C.3     1  UNL1        0.0771
     21 C         142.9545  139.9500  167.3352 C.3     1  UNL1        0.0437
     22 C         142.0645  140.7439  168.2449 C.ar    1  UNL1       -0.0199
     23 C         142.4863  142.1084  168.7035 C.ar    1  UNL1       -0.0033
     24 C         141.5962  142.9022  169.6132 C.ar    1  UNL1        0.0119
     25 C         140.2844  142.3316  170.0643 C.ar    1  UNL1        0.0682
     26 CL        139.3944  143.1256  170.9741 Cl      1  UNL1       -0.0814
     27 C         139.8626  140.9672  169.6058 C.ar    1  UNL1        0.0679
     28 CL        138.5508  140.3966  170.0569 Cl      1  UNL1       -0.0814
     29 C         140.7527  140.1733  168.6961 C.ar    1  UNL1        0.0080
     30 C         141.4772  140.8755  164.7023 C.3     1  UNL1        0.0993
     31 C         142.3115  142.0166  164.2006 C.ar    1  UNL1       -0.0031
     32 C         143.2316  142.7416  165.1376 C.ar    1  UNL1       -0.0027
     33 C         144.0660  143.8827  164.6359 C.ar    1  UNL1        0.0028
     34 C         143.9803  144.2988  163.1972 C.ar    1  UNL1        0.0366
     35 C         143.0602  143.5737  162.2604 C.ar    1  UNL1        0.1334
     36 O         142.9745  143.9898  160.8218 O.3     1  UNL1       -0.5055
     37 C         142.2258  142.4326  162.7621 C.ar    1  UNL1        0.0337
     38 H         143.4957  144.7026  160.5084 H       1  UNL1        0.2922
@<TRIPOS>BOND
     1    16    17    1
     2    17    18    2
     3    17    19    2
     4    17    14    1
     5    14     8    1
     6     8     9   ar
     7     9    10   ar
     8    10    11   ar
     9    11     7    1
    10     7     6    1
    11     6     3    1
    12     3     4    1
    13     3     2    1
    14     2     1    1
    15     1    20    1
    16    20    21    1
    17    21    22    1
    18    22    23   ar
    19    23    24   ar
    20    24    25   ar
    21    25    26    1
    22    25    27   ar
    23    27    28    1
    24    27    29   ar
    25     1    30    1
    26    30    31    1
    27    31    32   ar
    28    32    33   ar
    29    33    34   ar
    30    34    35   ar
    31    35    36    1
    32    35    37   ar
    33    11    12   ar
    34    12    13   ar
    35    13     8   ar
    36    29    22   ar
    37    37    31   ar
    38    14    15    1
    39     4     5    1
    40    36    38    1
@<TRIPOS>MOLECULE
*****
 38 40 0 0 0
SMALL
GASTEIGER

@<TRIPOS>ATOM
      1 N         144.6678  140.9547  162.6822 N.3     1  UNL1       -0.2665
      2 C         144.4441  139.6381  163.3650 C.3     1  UNL1        0.1058
      3 C         143.7103  138.5397  162.6542 C.3     1  UNL1        0.1700
      4 O         144.3479  137.8441  161.4882 O.3     1  UNL1       -0.3793
      5 H         145.2263  138.2225  161.3268 H       1  UNL1        0.2106
      6 C         142.3389  138.1370  163.1094 C.3     1  UNL1        0.2358
      7 O         141.4363  137.3735  162.1862 O.3     1  UNL1       -0.4728
      8 C         138.5003  139.5742  159.5810 C.ar    1  UNL1        0.0646
      9 C         139.8784  139.2743  159.0701 C.ar    1  UNL1        0.0190
     10 C         140.8570  138.5408  159.9385 C.ar    1  UNL1        0.0382
     11 C         140.4577  138.1071  161.3178 C.ar    1  UNL1        0.1388
     12 C         139.0796  138.4069  161.8286 C.ar    1  UNL1        0.0382
     13 C         138.1009  139.1405  160.9602 C.ar    1  UNL1        0.0190
     14 N         137.5216  140.3078  158.7126 N.pl3   1  UNL1       -0.2187
     15 H         136.5581  140.2614  158.9091 H       1  UNL1        0.1734
     16 C         138.5005  141.9161  156.3770 C.3     1  UNL1        0.1996
     17 S         138.0111  141.1119  157.5448 S.O2    1  UNL1        0.0558
     18 O         138.2904  142.2684  158.4583 O.2     1  UNL1       -0.1544
     19 O         137.7317  139.9554  156.6314 O.2     1  UNL1       -0.1544
     20 C         145.4672  142.0262  163.3625 C.3     1  UNL1        0.0771
     21 C         144.9147  142.7205  164.5719 C.3     1  UNL1        0.0437
     22 C         143.5218  143.2767  164.5464 C.ar    1  UNL1       -0.0199
     23 C         143.2590  144.6123  163.9164 C.ar    1  UNL1       -0.0033
     24 C         141.8662  145.1684  163.8910 C.ar    1  UNL1        0.0119
     25 C         140.7361  144.3890  164.4955 C.ar    1  UNL1        0.0682
     26 CL        139.3433  144.9452  164.4700 Cl      1  UNL1       -0.0814
     27 C         140.9990  143.0533  165.1255 C.ar    1  UNL1        0.0679
     28 CL        139.8689  142.2738  165.7300 Cl      1  UNL1       -0.0814
     29 C         142.3918  142.4972  165.1510 C.ar    1  UNL1        0.0080
     30 C         144.0921  141.2000  161.3189 C.3     1  UNL1        0.0993
     31 C         142.8565  142.0366  161.1659 C.ar    1  UNL1       -0.0031
     32 C         141.5419  141.5347  161.6855 C.ar    1  UNL1       -0.0027
     33 C         140.3063  142.3714  161.5326 C.ar    1  UNL1        0.0028
     34 C         140.3854  143.7099  160.8601 C.ar    1  UNL1        0.0366
     35 C         141.7000  144.2117  160.3405 C.ar    1  UNL1        0.1334
     36 O         141.7790  145.5502  159.6681 O.3     1  UNL1       -0.5055
     37 C         142.9356  143.3751  160.4935 C.ar    1  UNL1        0.0337
     38 H         141.0072  146.0728  159.5725 H       1  UNL1        0.2922
@<TRIPOS>BOND
     1    16    17    1
     2    17    18    2
     3    17    19    2
     4    17    14    1
     5    14     8    1
     6     8     9   ar
     7     9    10   ar
     8    10    11   ar
     9    11     7    1
    10     7     6    1
    11     6     3    1
    12     3     4    1
    13     3     2    1
    14     2     1    1
    15     1    20    1
    16    20    21    1
    17    21    22    1
    18    22    23   ar
    19    23    24   ar
    20    24    25   ar
    21    25    26    1
    22    25    27   ar
    23    27    28    1
    24    27    29   ar
    25     1    30    1
    26    30    31    1
    27    31    32   ar
    28    32    33   ar
    29    33    34   ar
    30    34    35   ar
    31    35    36    1
    32    35    37   ar
    33    11    12   ar
    34    12    13   ar
    35    13     8   ar
    36    29    22   ar
    37    37    31   ar
    38    14    15    1
    39     4     5    1
    40    36    38    1
@<TRIPOS>MOLECULE
*****
 38 40 0 0 0
SMALL
GASTEIGER

@<TRIPOS>ATOM
      1 N         139.0687  141.9032  161.1574 N.3     1  UNL1       -0.2665
      2 C         139.0168  143.4023  161.1546 C.3     1  UNL1        0.1058
      3 C         138.7635  144.1464  162.4322 C.3     1  UNL1        0.1700
      4 O         137.3646  144.5348  162.8092 O.3     1  UNL1       -0.3793
      5 H         136.7489  144.2314  162.1238 H       1  UNL1        0.2106
      6 C         139.9092  144.5021  163.3327 C.3     1  UNL1        0.2358
      7 O         140.9589  143.4789  163.6506 O.3     1  UNL1       -0.4728
      8 C         141.6080  142.1686  167.9064 C.ar    1  UNL1        0.0646
      9 C         142.6594  141.9010  166.8706 C.ar    1  UNL1        0.0190
     10 C         142.4430  142.3378  165.4520 C.ar    1  UNL1        0.0382
     11 C         141.1753  143.0421  165.0692 C.ar    1  UNL1        0.1388
     12 C         140.1239  143.3097  166.1050 C.ar    1  UNL1        0.0382
     13 C         140.3403  142.8729  167.5236 C.ar    1  UNL1        0.0190
     14 N         141.8244  141.7318  169.3250 N.pl3   1  UNL1       -0.2187
     15 H         141.7410  142.3829  170.0587 H       1  UNL1        0.1734
     16 C         142.5114  138.8741  169.9264 C.3     1  UNL1        0.1996
     17 S         142.1678  140.3030  169.6257 S.O2    1  UNL1        0.0558
     18 O         143.5484  140.7213  170.0365 O.2     1  UNL1       -0.1544
     19 O         140.7872  139.8846  169.2148 O.2     1  UNL1       -0.1544
     20 C         140.1614  141.1892  160.4184 C.3     1  UNL1        0.0771
     21 C         141.5839  141.6432  160.5608 C.3     1  UNL1        0.0437
     22 C         142.4704  141.0184  161.5971 C.ar    1  UNL1       -0.0199
     23 C         142.0505  139.7487  162.2764 C.ar    1  UNL1       -0.0033
     24 C         142.9369  139.1240  163.3127 C.ar    1  UNL1        0.0119
     25 C         144.2433  139.7689  163.6696 C.ar    1  UNL1        0.0682
     26 CL        145.1298  139.1441  164.7059 Cl      1  UNL1       -0.0814
     27 C         144.6632  141.0386  162.9903 C.ar    1  UNL1        0.0679
     28 CL        145.9696  141.6835  163.3472 Cl      1  UNL1       -0.0814
     29 C         143.7768  141.6633  161.9540 C.ar    1  UNL1        0.0080
     30 C         138.0279  141.1181  161.8994 C.3     1  UNL1        0.0993
     31 C         138.4416  140.0239  162.8382 C.ar    1  UNL1       -0.0031
     32 C         138.4984  138.6043  162.3570 C.ar    1  UNL1       -0.0027
     33 C         138.9121  137.5101  163.2959 C.ar    1  UNL1        0.0028
     34 C         139.2692  137.8355  164.7160 C.ar    1  UNL1        0.0366
     35 C         139.2124  139.2551  165.1972 C.ar    1  UNL1        0.1334
     36 O         139.5695  139.5805  166.6173 O.3     1  UNL1       -0.5055
     37 C         138.7987  140.3493  164.2583 C.ar    1  UNL1        0.0337
     38 H         139.8279  138.8969  167.2037 H       1  UNL1        0.2922
@<TRIPOS>BOND
     1    16    17    1
     2    17    18    2
     3    17    19    2
     4    17    14    1
     5    14     8    1
     6     8     9   ar
     7     9    10   ar
     8    10    11   ar
     9    11     7    1
    10     7     6    1
    11     6     3    1
    12     3     4    1
    13     3     2    1
    14     2     1    1
    15     1    20    1
    16    20    21    1
    17    21    22    1
    18    22    23   ar
    19    23    24   ar
    20    24    25   ar
    21    25    26    1
    22    25    27   ar
    23    27    28    1
    24    27    29   ar
    25     1    30    1
    26    30    31    1
    27    31    32   ar
    28    32    33   ar
    29    33    34   ar
    30    34    35   ar
    31    35    36    1
    32    35    37   ar
    33    11    12   ar
    34    12    13   ar
    35    13     8   ar
    36    29    22   ar
    37    37    31   ar
    38    14    15    1
    39     4     5    1
    40    36    38    1
