@<TRIPOS>MOLECULE
*****
 34 37 0 0 0
SMALL
GASTEIGER

@<TRIPOS>ATOM
      1 N         143.3793  139.3493  162.9004 N.3     1  UNL1       -0.2679
      2 C         142.1839  138.9788  162.0735 C.3     1  UNL1        0.0897
      3 C         140.9750  138.3798  162.7290 C.3     1  UNL1        0.0897
      4 N         140.9616  138.1513  164.2115 N.3     1  UNL1       -0.2680
      5 C         142.1570  138.5218  165.0384 C.3     1  UNL1        0.0897
      6 C         143.3658  139.1208  164.3828 C.3     1  UNL1        0.0897
      7 C         144.5882  139.9484  162.2448 C.3     1  UNL1        0.1080
      8 C         144.8876  141.4084  162.4147 C.3     1  UNL1        0.1660
      9 O         146.2402  141.8458  162.8934 O.3     1  UNL1       -0.3771
     10 H         146.7970  141.0663  163.0455 H       1  UNL1        0.2109
     11 C         142.0933  145.5569  163.8223 C.3     1  UNL1        0.0528
     12 C         142.4374  144.5051  162.8097 C.ar    1  UNL1        0.0686
     13 N         143.4905  143.4826  163.1185 N.ar    1  UNL1       -0.2509
     14 C         143.8345  142.4308  162.1058 C.ar    1  UNL1        0.0867
     15 C         143.1253  142.4015  160.7844 C.ar    1  UNL1        0.0179
     16 C         142.0721  143.4240  160.4756 C.ar    1  UNL1        0.0128
     17 C         141.7282  144.4758  161.4883 C.ar    1  UNL1        0.0820
     18 C         140.6750  145.4983  161.1794 C.1     1  UNL1        0.1016
     19 N         139.6217  146.5207  160.8706 N.1     1  UNL1       -0.1908
     20 C         139.7527  137.5523  164.8670 C.3     1  UNL1        0.1064
     21 C         138.7086  138.4434  165.4719 C.3     1  UNL1        0.1483
     22 O         137.8394  137.9332  166.5829 O.3     1  UNL1       -0.3786
     23 H         137.2230  138.6302  166.8571 H       1  UNL1        0.2108
     24 C         138.5337  139.8446  164.9658 C.ar    1  UNL1        0.0015
     25 C         137.7422  140.0977  163.7171 C.ar    1  UNL1       -0.0020
     26 C         137.5674  141.4989  163.2110 C.ar    1  UNL1        0.0060
     27 C         138.1840  142.6470  163.9537 C.ar    1  UNL1        0.0748
     28 C         138.9756  142.3939  165.2025 C.ar    1  UNL1        0.0233
     29 C         139.1504  140.9927  165.7086 C.ar    1  UNL1       -0.0238
     30 C         139.9420  140.7396  166.9574 C.3     1  UNL1        0.0306
     31 C         139.4628  143.7154  165.7183 C.3     1  UNL1        0.2352
     32 O         138.9723  144.7853  164.7884 O.3     1  UNL1       -0.4404
     33 C         138.1820  144.1250  163.6978 C.2     1  UNL1        0.3413
     34 O         137.5080  144.8205  162.5524 O.2     1  UNL1       -0.2449
@<TRIPOS>BOND
     1    11    12    1
     2    12    13   ar
     3    13    14   ar
     4    14     8    1
     5     8     9    1
     6     8     7    1
     7     7     1    1
     8     1     2    1
     9     2     3    1
    10     3     4    1
    11     4    20    1
    12    20    21    1
    13    21    22    1
    14    21    24    1
    15    24    25   ar
    16    25    26   ar
    17    26    27   ar
    18    27    28   ar
    19    28    29   ar
    20    29    30    1
    21    28    31    1
    22    31    32    1
    23    32    33    1
    24    33    34    2
    25     4     5    1
    26     5     6    1
    27    14    15   ar
    28    15    16   ar
    29    16    17   ar
    30    17    18    1
    31    18    19    3
    32    17    12   ar
    33     6     1    1
    34    29    24   ar
    35    33    27    1
    36     9    10    1
    37    22    23    1
@<TRIPOS>MOLECULE
*****
 34 37 0 0 0
SMALL
GASTEIGER

@<TRIPOS>ATOM
      1 N         139.9999  137.7475  164.2404 N.3     1  UNL1       -0.2679
      2 C         141.3595  137.9799  164.8300 C.3     1  UNL1        0.0897
      3 C         142.5538  138.1117  163.9321 C.3     1  UNL1        0.0897
      4 N         142.3884  138.0111  162.4445 N.3     1  UNL1       -0.2680
      5 C         141.0289  137.7787  161.8550 C.3     1  UNL1        0.0897
      6 C         139.8346  137.6469  162.7530 C.3     1  UNL1        0.0897
      7 C         138.8056  137.6157  165.1383 C.3     1  UNL1        0.1080
      8 C         138.1560  138.8422  165.7074 C.3     1  UNL1        0.1660
      9 O         137.3648  138.7506  166.9785 O.3     1  UNL1       -0.3771
     10 H         137.3731  137.8352  167.2992 H       1  UNL1        0.2109
     11 C         140.0146  143.6928  165.5744 C.3     1  UNL1        0.0528
     12 C         139.2270  142.5855  164.9391 C.ar    1  UNL1        0.0686
     13 N         139.0853  141.2674  165.6409 N.ar    1  UNL1       -0.2509
     14 C         138.2977  140.1602  165.0055 C.ar    1  UNL1        0.0867
     15 C         137.6519  140.3710  163.6682 C.ar    1  UNL1        0.0179
     16 C         137.7936  141.6891  162.9663 C.ar    1  UNL1        0.0128
     17 C         138.5812  142.7963  163.6017 C.ar    1  UNL1        0.0820
     18 C         138.7229  144.1144  162.8997 C.1     1  UNL1        0.1016
     19 N         138.8645  145.4323  162.1977 N.1     1  UNL1       -0.1908
     20 C         143.5827  138.1429  161.5466 C.3     1  UNL1        0.1064
     21 C         144.0213  139.4979  161.0760 C.3     1  UNL1        0.1483
     22 O         144.3185  139.7275  159.6238 O.3     1  UNL1       -0.3786
     23 H         144.5867  140.6502  159.4906 H       1  UNL1        0.2108
     24 C         144.1626  140.6234  162.0576 C.ar    1  UNL1        0.0015
     25 C         145.2134  140.5592  163.1260 C.ar    1  UNL1       -0.0020
     26 C         145.3548  141.6846  164.1076 C.ar    1  UNL1        0.0060
     27 C         144.4452  142.8742  164.0207 C.ar    1  UNL1        0.0748
     28 C         143.3944  142.9384  162.9522 C.ar    1  UNL1        0.0233
     29 C         143.2530  141.8130  161.9707 C.ar    1  UNL1       -0.0238
     30 C         142.2022  141.8772  160.9021 C.3     1  UNL1        0.0306
     31 C         142.6478  144.2294  163.1133 C.3     1  UNL1        0.2352
     32 O         143.2373  144.9631  164.2813 O.3     1  UNL1       -0.4404
     33 C         144.3482  144.1255  164.8421 C.2     1  UNL1        0.3413
     34 O         145.2105  144.4775  166.0179 O.2     1  UNL1       -0.2449
@<TRIPOS>BOND
     1    11    12    1
     2    12    13   ar
     3    13    14   ar
     4    14     8    1
     5     8     9    1
     6     8     7    1
     7     7     1    1
     8     1     2    1
     9     2     3    1
    10     3     4    1
    11     4    20    1
    12    20    21    1
    13    21    22    1
    14    21    24    1
    15    24    25   ar
    16    25    26   ar
    17    26    27   ar
    18    27    28   ar
    19    28    29   ar
    20    29    30    1
    21    28    31    1
    22    31    32    1
    23    32    33    1
    24    33    34    2
    25     4     5    1
    26     5     6    1
    27    14    15   ar
    28    15    16   ar
    29    16    17   ar
    30    17    18    1
    31    18    19    3
    32    17    12   ar
    33     6     1    1
    34    29    24   ar
    35    33    27    1
    36     9    10    1
    37    22    23    1
@<TRIPOS>MOLECULE
*****
 34 37 0 0 0
SMALL
GASTEIGER

@<TRIPOS>ATOM
      1 N         139.1017  142.6889  161.3699 N.3     1  UNL1       -0.2679
      2 C         138.1563  143.1248  162.4499 C.3     1  UNL1        0.0897
      3 C         137.8452  142.2027  163.5913 C.3     1  UNL1        0.0897
      4 N         138.4794  140.8447  163.6527 N.3     1  UNL1       -0.2680
      5 C         139.4247  140.4089  162.5728 C.3     1  UNL1        0.0897
      6 C         139.7359  141.3310  161.4314 C.3     1  UNL1        0.0897
      7 C         139.4129  143.6110  160.2285 C.3     1  UNL1        0.1080
      8 C         140.6038  144.5201  160.3018 C.3     1  UNL1        0.1660
      9 O         140.8610  145.5091  159.2038 O.3     1  UNL1       -0.3771
     10 H         140.1686  145.4304  158.5290 H       1  UNL1        0.2109
     11 C         144.8684  142.5600  162.5314 C.3     1  UNL1        0.0528
     12 C         143.6697  143.4600  162.5878 C.ar    1  UNL1        0.0686
     13 N         142.7361  143.5401  161.4165 N.ar    1  UNL1       -0.2509
     14 C         141.5374  144.4401  161.4731 C.ar    1  UNL1        0.0867
     15 C         141.2724  145.2601  162.7008 C.ar    1  UNL1        0.0179
     16 C         142.2061  145.1800  163.8721 C.ar    1  UNL1        0.0128
     17 C         143.4047  144.2800  163.8156 C.ar    1  UNL1        0.0820
     18 C         144.3384  144.2000  164.9869 C.1     1  UNL1        0.1016
     19 N         145.2719  144.1201  166.1583 N.1     1  UNL1       -0.1908
     20 C         138.1682  139.9227  164.7942 C.3     1  UNL1        0.1064
     21 C         139.2800  139.3660  165.6332 C.3     1  UNL1        0.1483
     22 O         140.0247  138.1461  165.1780 O.3     1  UNL1       -0.3786
     23 H         140.7058  137.9207  165.8308 H       1  UNL1        0.2108
     24 C         139.6473  140.0294  166.9276 C.ar    1  UNL1        0.0015
     25 C         138.8664  139.7287  168.1724 C.ar    1  UNL1       -0.0020
     26 C         139.2336  140.3920  169.4667 C.ar    1  UNL1        0.0060
     27 C         140.3817  141.3560  169.5161 C.ar    1  UNL1        0.0748
     28 C         141.1626  141.6568  168.2712 C.ar    1  UNL1        0.0233
     29 C         140.7954  140.9935  166.9769 C.ar    1  UNL1       -0.0238
     30 C         141.5763  141.2942  165.7319 C.3     1  UNL1        0.0306
     31 C         142.2360  142.6433  168.6242 C.3     1  UNL1        0.2352
     32 O         142.1185  142.9523  170.0873 O.3     1  UNL1       -0.4404
     33 C         140.9725  142.1567  170.6385 C.2     1  UNL1        0.3413
     34 O         140.5002  142.1610  172.0622 O.2     1  UNL1       -0.2449
@<TRIPOS>BOND
     1    11    12    1
     2    12    13   ar
     3    13    14   ar
     4    14     8    1
     5     8     9    1
     6     8     7    1
     7     7     1    1
     8     1     2    1
     9     2     3    1
    10     3     4    1
    11     4    20    1
    12    20    21    1
    13    21    22    1
    14    21    24    1
    15    24    25   ar
    16    25    26   ar
    17    26    27   ar
    18    27    28   ar
    19    28    29   ar
    20    29    30    1
    21    28    31    1
    22    31    32    1
    23    32    33    1
    24    33    34    2
    25     4     5    1
    26     5     6    1
    27    14    15   ar
    28    15    16   ar
    29    16    17   ar
    30    17    18    1
    31    18    19    3
    32    17    12   ar
    33     6     1    1
    34    29    24   ar
    35    33    27    1
    36     9    10    1
    37    22    23    1
@<TRIPOS>MOLECULE
*****
 34 37 0 0 0
SMALL
GASTEIGER

@<TRIPOS>ATOM
      1 N         142.3557  138.6929  164.2528 N.3     1  UNL1       -0.2679
      2 C         141.2607  137.7457  164.6451 C.3     1  UNL1        0.0897
      3 C         140.0409  137.6109  163.7826 C.3     1  UNL1        0.0897
      4 N         139.9162  138.4233  162.5277 N.3     1  UNL1       -0.2680
      5 C         141.0112  139.3705  162.1354 C.3     1  UNL1        0.0897
      6 C         142.2309  139.5052  162.9980 C.3     1  UNL1        0.0897
      7 C         143.5755  138.8277  165.1153 C.3     1  UNL1        0.1080
      8 C         143.4843  138.5667  166.5896 C.3     1  UNL1        0.1660
      9 O         144.2057  137.3966  167.1900 O.3     1  UNL1       -0.3771
     10 H         144.6793  136.9164  166.4929 H       1  UNL1        0.2109
     11 C         140.5091  142.7890  167.1552 C.3     1  UNL1        0.0528
     12 C         141.1842  141.5868  167.7461 C.ar    1  UNL1        0.0686
     13 N         141.9968  140.6778  166.8724 N.ar    1  UNL1       -0.2509
     14 C         142.6717  139.4756  167.4633 C.ar    1  UNL1        0.0867
     15 C         142.5341  139.1825  168.9280 C.ar    1  UNL1        0.0179
     16 C         141.7215  140.0915  169.8016 C.ar    1  UNL1        0.0128
     17 C         141.0466  141.2937  169.2107 C.ar    1  UNL1        0.0820
     18 C         140.2340  142.2027  170.0845 C.1     1  UNL1        0.1016
     19 N         139.4215  143.1117  170.9584 N.1     1  UNL1       -0.1908
     20 C         138.6964  138.2885  161.6652 C.3     1  UNL1        0.1064
     21 C         137.8214  139.4802  161.4121 C.3     1  UNL1        0.1483
     22 O         136.7349  139.4074  160.3804 O.3     1  UNL1       -0.3786
     23 H         136.2672  140.2563  160.3430 H       1  UNL1        0.2108
     24 C         138.0329  140.7449  162.1906 C.ar    1  UNL1        0.0015
     25 C         137.5930  140.8267  163.6222 C.ar    1  UNL1       -0.0020
     26 C         137.8045  142.0913  164.4007 C.ar    1  UNL1        0.0060
     27 C         138.4559  143.2741  163.7475 C.ar    1  UNL1        0.0748
     28 C         138.8958  143.1923  162.3158 C.ar    1  UNL1        0.0233
     29 C         138.6843  141.9277  161.5373 C.ar    1  UNL1       -0.0238
     30 C         139.1242  141.8458  160.1055 C.3     1  UNL1        0.0306
     31 C         139.5056  144.5108  161.9421 C.3     1  UNL1        0.2352
     32 O         139.4425  145.4076  163.1429 O.3     1  UNL1       -0.4404
     33 C         138.7938  144.6432  164.2587 C.2     1  UNL1        0.3413
     34 O         138.5294  145.1578  165.6426 O.2     1  UNL1       -0.2449
@<TRIPOS>BOND
     1    11    12    1
     2    12    13   ar
     3    13    14   ar
     4    14     8    1
     5     8     9    1
     6     8     7    1
     7     7     1    1
     8     1     2    1
     9     2     3    1
    10     3     4    1
    11     4    20    1
    12    20    21    1
    13    21    22    1
    14    21    24    1
    15    24    25   ar
    16    25    26   ar
    17    26    27   ar
    18    27    28   ar
    19    28    29   ar
    20    29    30    1
    21    28    31    1
    22    31    32    1
    23    32    33    1
    24    33    34    2
    25     4     5    1
    26     5     6    1
    27    14    15   ar
    28    15    16   ar
    29    16    17   ar
    30    17    18    1
    31    18    19    3
    32    17    12   ar
    33     6     1    1
    34    29    24   ar
    35    33    27    1
    36     9    10    1
    37    22    23    1
@<TRIPOS>MOLECULE
*****
 34 37 0 0 0
SMALL
GASTEIGER

@<TRIPOS>ATOM
      1 N         142.2924  140.4214  167.0058 N.3     1  UNL1       -0.2679
      2 C         142.9440  139.4925  166.0247 C.3     1  UNL1        0.0897
      3 C         143.9048  140.0309  165.0064 C.3     1  UNL1        0.0897
      4 N         144.2141  141.4983  164.9694 N.3     1  UNL1       -0.2680
      5 C         143.5625  142.4272  165.9505 C.3     1  UNL1        0.0897
      6 C         142.6017  141.8887  166.9688 C.3     1  UNL1        0.0897
      7 C         141.3316  139.8829  168.0241 C.3     1  UNL1        0.1080
      8 C         139.8596  139.8744  167.7356 C.3     1  UNL1        0.1660
      9 O         138.8738  139.8672  168.8661 O.3     1  UNL1       -0.3771
     10 H         139.3506  139.8691  169.7108 H       1  UNL1        0.2109
     11 C         138.9566  137.3390  163.2907 C.3     1  UNL1        0.0528
     12 C         138.9220  138.6053  164.0942 C.ar    1  UNL1        0.0686
     13 N         139.4081  138.6067  165.5132 N.ar    1  UNL1       -0.2509
     14 C         139.3735  139.8730  166.3165 C.ar    1  UNL1        0.0867
     15 C         138.8528  141.1378  165.7008 C.ar    1  UNL1        0.0179
     16 C         138.3667  141.1364  164.2818 C.ar    1  UNL1        0.0128
     17 C         138.4013  139.8701  163.4785 C.ar    1  UNL1        0.0820
     18 C         137.9152  139.8687  162.0594 C.1     1  UNL1        0.1016
     19 N         137.4292  139.8674  160.6403 N.1     1  UNL1       -0.1908
     20 C         145.1749  142.0367  163.9511 C.3     1  UNL1        0.1064
     21 C         144.6875  142.4052  162.5812 C.3     1  UNL1        0.1483
     22 O         145.6524  142.4722  161.4347 O.3     1  UNL1       -0.3786
     23 H         145.1775  142.7225  160.6267 H       1  UNL1        0.2108
     24 C         143.2351  142.7067  162.3579 C.ar    1  UNL1        0.0015
     25 C         142.3193  141.6397  161.8358 C.ar    1  UNL1       -0.0020
     26 C         140.8670  141.9411  161.6124 C.ar    1  UNL1        0.0060
     27 C         140.3305  143.3097  161.9111 C.ar    1  UNL1        0.0748
     28 C         141.2463  144.3768  162.4332 C.ar    1  UNL1        0.0233
     29 C         142.6986  144.0753  162.6566 C.ar    1  UNL1       -0.0238
     30 C         143.6146  145.1424  163.1787 C.3     1  UNL1        0.0306
     31 C         140.4374  145.6235  162.6360 C.3     1  UNL1        0.2352
     32 O         139.0215  145.3270  162.2391 O.3     1  UNL1       -0.4404
     33 C         138.9555  143.8969  161.7912 C.2     1  UNL1        0.3413
     34 O         137.7296  143.1801  161.3081 O.2     1  UNL1       -0.2449
@<TRIPOS>BOND
     1    11    12    1
     2    12    13   ar
     3    13    14   ar
     4    14     8    1
     5     8     9    1
     6     8     7    1
     7     7     1    1
     8     1     2    1
     9     2     3    1
    10     3     4    1
    11     4    20    1
    12    20    21    1
    13    21    22    1
    14    21    24    1
    15    24    25   ar
    16    25    26   ar
    17    26    27   ar
    18    27    28   ar
    19    28    29   ar
    20    29    30    1
    21    28    31    1
    22    31    32    1
    23    32    33    1
    24    33    34    2
    25     4     5    1
    26     5     6    1
    27    14    15   ar
    28    15    16   ar
    29    16    17   ar
    30    17    18    1
    31    18    19    3
    32    17    12   ar
    33     6     1    1
    34    29    24   ar
    35    33    27    1
    36     9    10    1
    37    22    23    1
@<TRIPOS>MOLECULE
*****
 34 37 0 0 0
SMALL
GASTEIGER

@<TRIPOS>ATOM
      1 N         139.2113  139.0357  164.4224 N.3     1  UNL1       -0.2679
      2 C         140.1093  137.8782  164.7447 C.3     1  UNL1        0.0897
      3 C         141.1868  137.4742  163.7825 C.3     1  UNL1        0.0897
      4 N         141.3661  138.2277  162.4979 N.3     1  UNL1       -0.2680
      5 C         140.4681  139.3852  162.1756 C.3     1  UNL1        0.0897
      6 C         139.3907  139.7891  163.1378 C.3     1  UNL1        0.0897
      7 C         138.1339  139.4397  165.3846 C.3     1  UNL1        0.1080
      8 C         138.3247  139.2264  166.8571 C.3     1  UNL1        0.1660
      9 O         137.5822  138.1277  167.5581 O.3     1  UNL1       -0.3771
     10 H         137.0265  137.6542  166.9194 H       1  UNL1        0.2109
     11 C         140.7206  140.4519  171.3021 C.3     1  UNL1        0.0528
     12 C         140.4558  140.7245  169.8510 C.ar    1  UNL1        0.0686
     13 N         139.5226  139.8391  169.0795 N.ar    1  UNL1       -0.2509
     14 C         139.2579  140.1118  167.6285 C.ar    1  UNL1        0.0867
     15 C         139.9264  141.2700  166.9489 C.ar    1  UNL1        0.0179
     16 C         140.8596  142.1553  167.7203 C.ar    1  UNL1        0.0128
     17 C         141.1243  141.8826  169.1714 C.ar    1  UNL1        0.0820
     18 C         142.0576  142.7681  169.9428 C.1     1  UNL1        0.1016
     19 N         142.9908  143.6537  170.7141 N.1     1  UNL1       -0.1908
     20 C         142.4436  137.8237  161.5357 C.3     1  UNL1        0.1064
     21 C         143.7944  138.4720  161.6069 C.3     1  UNL1        0.1483
     22 O         144.9536  137.8731  160.8670 O.3     1  UNL1       -0.3786
     23 H         145.7464  138.4112  161.0181 H       1  UNL1        0.2108
     24 C         143.9859  139.7192  162.4181 C.ar    1  UNL1        0.0015
     25 C         144.4079  139.6224  163.8542 C.ar    1  UNL1       -0.0020
     26 C         144.5994  140.8695  164.6654 C.ar    1  UNL1        0.0060
     27 C         144.3690  142.2135  164.0403 C.ar    1  UNL1        0.0748
     28 C         143.9471  142.3103  162.6042 C.ar    1  UNL1        0.0233
     29 C         143.7555  141.0632  161.7930 C.ar    1  UNL1       -0.0238
     30 C         143.3336  141.1600  160.3568 C.3     1  UNL1        0.0306
     31 C         143.7954  143.7630  162.2625 C.3     1  UNL1        0.2352
     32 O         144.1235  144.5639  163.4876 O.3     1  UNL1       -0.4404
     33 C         144.4781  143.6063  164.5863 C.2     1  UNL1        0.3413
     34 O         144.8724  143.9765  165.9854 O.2     1  UNL1       -0.2449
@<TRIPOS>BOND
     1    11    12    1
     2    12    13   ar
     3    13    14   ar
     4    14     8    1
     5     8     9    1
     6     8     7    1
     7     7     1    1
     8     1     2    1
     9     2     3    1
    10     3     4    1
    11     4    20    1
    12    20    21    1
    13    21    22    1
    14    21    24    1
    15    24    25   ar
    16    25    26   ar
    17    26    27   ar
    18    27    28   ar
    19    28    29   ar
    20    29    30    1
    21    28    31    1
    22    31    32    1
    23    32    33    1
    24    33    34    2
    25     4     5    1
    26     5     6    1
    27    14    15   ar
    28    15    16   ar
    29    16    17   ar
    30    17    18    1
    31    18    19    3
    32    17    12   ar
    33     6     1    1
    34    29    24   ar
    35    33    27    1
    36     9    10    1
    37    22    23    1
@<TRIPOS>MOLECULE
*****
 34 37 0 0 0
SMALL
GASTEIGER

@<TRIPOS>ATOM
      1 N         140.7713  140.4665  166.9305 N.3     1  UNL1       -0.2679
      2 C         140.8864  141.9334  166.6389 C.3     1  UNL1        0.0897
      3 C         142.1003  142.4655  165.9366 C.3     1  UNL1        0.0897
      4 N         143.1991  141.5306  165.5258 N.3     1  UNL1       -0.2680
      5 C         143.0841  140.0637  165.8175 C.3     1  UNL1        0.0897
      6 C         141.8701  139.5317  166.5198 C.3     1  UNL1        0.0897
      7 C         139.5574  139.9344  167.6329 C.3     1  UNL1        0.1080
      8 C         138.5367  139.1424  166.8707 C.3     1  UNL1        0.1660
      9 O         137.5733  138.2574  167.6046 O.3     1  UNL1       -0.3771
     10 H         137.7451  138.3128  168.5577 H       1  UNL1        0.2109
     11 C         137.4960  141.8629  162.5677 C.3     1  UNL1        0.0528
     12 C         137.9591  140.5956  163.2232 C.ar    1  UNL1        0.0686
     13 N         138.0164  140.5026  164.7192 N.ar    1  UNL1       -0.2509
     14 C         138.4795  139.2353  165.3747 C.ar    1  UNL1        0.0867
     15 C         138.8854  138.0611  164.5341 C.ar    1  UNL1        0.0179
     16 C         138.8281  138.1542  163.0381 C.ar    1  UNL1        0.0128
     17 C         138.3650  139.4214  162.3827 C.ar    1  UNL1        0.0820
     18 C         138.3078  139.5144  160.8866 C.1     1  UNL1        0.1016
     19 N         138.2507  139.6074  159.3906 N.1     1  UNL1       -0.1908
     20 C         144.4130  142.0627  164.8235 C.3     1  UNL1        0.1064
     21 C         144.4583  142.0950  163.3245 C.3     1  UNL1        0.1483
     22 O         145.7397  141.7917  162.6062 O.3     1  UNL1       -0.3786
     23 H         145.5967  141.8559  161.6489 H       1  UNL1        0.2108
     24 C         143.2221  142.4307  162.5439 C.ar    1  UNL1        0.0015
     25 C         142.4598  141.3455  161.8432 C.ar    1  UNL1       -0.0020
     26 C         141.2237  141.6811  161.0626 C.ar    1  UNL1        0.0060
     27 C         140.7499  143.1020  160.9827 C.ar    1  UNL1        0.0748
     28 C         141.5123  144.1874  161.6834 C.ar    1  UNL1        0.0233
     29 C         142.7484  143.8517  162.4640 C.ar    1  UNL1       -0.0238
     30 C         143.5108  144.9370  163.1647 C.3     1  UNL1        0.0306
     31 C         140.8090  145.4873  161.4274 C.3     1  UNL1        0.2352
     32 O         139.6120  145.2054  160.5685 O.3     1  UNL1       -0.4404
     33 C         139.5755  143.7312  160.2937 C.2     1  UNL1        0.3413
     34 O         138.5454  143.0125  159.4738 O.2     1  UNL1       -0.2449
@<TRIPOS>BOND
     1    11    12    1
     2    12    13   ar
     3    13    14   ar
     4    14     8    1
     5     8     9    1
     6     8     7    1
     7     7     1    1
     8     1     2    1
     9     2     3    1
    10     3     4    1
    11     4    20    1
    12    20    21    1
    13    21    22    1
    14    21    24    1
    15    24    25   ar
    16    25    26   ar
    17    26    27   ar
    18    27    28   ar
    19    28    29   ar
    20    29    30    1
    21    28    31    1
    22    31    32    1
    23    32    33    1
    24    33    34    2
    25     4     5    1
    26     5     6    1
    27    14    15   ar
    28    15    16   ar
    29    16    17   ar
    30    17    18    1
    31    18    19    3
    32    17    12   ar
    33     6     1    1
    34    29    24   ar
    35    33    27    1
    36     9    10    1
    37    22    23    1
@<TRIPOS>MOLECULE
*****
 34 37 0 0 0
SMALL
GASTEIGER

@<TRIPOS>ATOM
      1 N         141.0001  141.4684  159.3357 N.3     1  UNL1       -0.2679
      2 C         139.7202  142.1539  159.7126 C.3     1  UNL1        0.0897
      3 C         138.8154  141.5407  160.7399 C.3     1  UNL1        0.0897
      4 N         139.1904  140.2420  161.3902 N.3     1  UNL1       -0.2680
      5 C         140.4703  139.5565  161.0132 C.3     1  UNL1        0.0897
      6 C         141.3751  140.1697  159.9859 C.3     1  UNL1        0.0897
      7 C         141.9049  142.0815  158.3084 C.3     1  UNL1        0.1080
      8 C         142.9607  143.0611  158.7278 C.3     1  UNL1        0.1660
      9 O         143.6616  143.8954  157.6970 O.3     1  UNL1       -0.3771
     10 H         143.3161  143.6794  156.8167 H       1  UNL1        0.2109
     11 C         142.1342  145.2548  163.3651 C.3     1  UNL1        0.0528
     12 C         142.9023  144.3031  162.4965 C.ar    1  UNL1        0.0686
     13 N         142.5475  144.1579  161.0464 N.ar    1  UNL1       -0.2509
     14 C         143.3156  143.2062  160.1779 C.ar    1  UNL1        0.0867
     15 C         144.4386  142.3996  160.7597 C.ar    1  UNL1        0.0179
     16 C         144.7934  142.5448  162.2098 C.ar    1  UNL1        0.0128
     17 C         144.0253  143.4966  163.0783 C.ar    1  UNL1        0.0820
     18 C         144.3802  143.6417  164.5285 C.1     1  UNL1        0.1016
     19 N         144.7352  143.7867  165.9786 N.1     1  UNL1       -0.1908
     20 C         138.2856  139.6288  162.4174 C.3     1  UNL1        0.1064
     21 C         137.7470  140.4672  163.5386 C.3     1  UNL1        0.1483
     22 O         136.5761  141.3743  163.3013 O.3     1  UNL1       -0.3786
     23 H         136.3567  141.8407  164.1230 H       1  UNL1        0.2108
     24 C         138.3794  140.3987  164.8971 C.ar    1  UNL1        0.0015
     25 C         138.0373  139.2731  165.8276 C.ar    1  UNL1       -0.0020
     26 C         138.6697  139.2045  167.1861 C.ar    1  UNL1        0.0060
     27 C         139.6441  140.2615  167.6140 C.ar    1  UNL1        0.0748
     28 C         139.9862  141.3872  166.6834 C.ar    1  UNL1        0.0233
     29 C         139.3539  141.4558  165.3250 C.ar    1  UNL1       -0.0238
     30 C         139.6960  142.5814  164.3943 C.3     1  UNL1        0.0306
     31 C         140.9742  142.2778  167.3767 C.3     1  UNL1        0.2352
     32 O         141.2427  141.7026  168.7358 O.3     1  UNL1       -0.4404
     33 C         140.4207  140.4565  168.8824 C.2     1  UNL1        0.3413
     34 O         140.3820  139.5623  170.0862 O.2     1  UNL1       -0.2449
@<TRIPOS>BOND
     1    11    12    1
     2    12    13   ar
     3    13    14   ar
     4    14     8    1
     5     8     9    1
     6     8     7    1
     7     7     1    1
     8     1     2    1
     9     2     3    1
    10     3     4    1
    11     4    20    1
    12    20    21    1
    13    21    22    1
    14    21    24    1
    15    24    25   ar
    16    25    26   ar
    17    26    27   ar
    18    27    28   ar
    19    28    29   ar
    20    29    30    1
    21    28    31    1
    22    31    32    1
    23    32    33    1
    24    33    34    2
    25     4     5    1
    26     5     6    1
    27    14    15   ar
    28    15    16   ar
    29    16    17   ar
    30    17    18    1
    31    18    19    3
    32    17    12   ar
    33     6     1    1
    34    29    24   ar
    35    33    27    1
    36     9    10    1
    37    22    23    1
@<TRIPOS>MOLECULE
*****
 34 37 0 0 0
SMALL
GASTEIGER

@<TRIPOS>ATOM
      1 N         143.7538  139.6429  164.0626 N.3     1  UNL1       -0.2679
      2 C         143.4248  139.1602  162.6810 C.3     1  UNL1        0.0897
      3 C         142.1675  138.3786  162.4393 C.3     1  UNL1        0.0897
      4 N         141.2394  138.0797  163.5792 N.3     1  UNL1       -0.2680
      5 C         141.5685  138.5624  164.9608 C.3     1  UNL1        0.0897
      6 C         142.8257  139.3440  165.2024 C.3     1  UNL1        0.0897
      7 C         145.0111  140.4245  164.3044 C.3     1  UNL1        0.1080
      8 C         145.3147  141.6337  163.4702 C.3     1  UNL1        0.1660
      9 O         146.7039  141.8564  162.9501 O.3     1  UNL1       -0.3771
     10 H         147.2785  141.1315  163.2421 H       1  UNL1        0.2109
     11 C         141.8298  143.5831  160.1452 C.3     1  UNL1        0.0528
     12 C         142.4867  143.5947  161.4937 C.ar    1  UNL1        0.0686
     13 N         143.5723  142.6084  161.8078 N.ar    1  UNL1       -0.2509
     14 C         144.2291  142.6201  163.1563 C.ar    1  UNL1        0.0867
     15 C         143.8004  143.6181  164.1907 C.ar    1  UNL1        0.0179
     16 C         142.7149  144.6044  163.8767 C.ar    1  UNL1        0.0128
     17 C         142.0580  144.5928  162.5282 C.ar    1  UNL1        0.0820
     18 C         140.9724  145.5792  162.2142 C.1     1  UNL1        0.1016
     19 N         139.8868  146.5655  161.9003 N.1     1  UNL1       -0.1908
     20 C         139.9822  137.2981  163.3374 C.3     1  UNL1        0.1064
     21 C         138.7568  137.9903  162.8186 C.3     1  UNL1        0.1483
     22 O         137.7881  137.2475  161.9470 O.3     1  UNL1       -0.3786
     23 H         137.0576  137.8362  161.7007 H       1  UNL1        0.2108
     24 C         138.5001  139.4255  163.1715 C.ar    1  UNL1        0.0015
     25 C         138.3289  139.8259  164.6068 C.ar    1  UNL1       -0.0020
     26 C         138.0722  141.2610  164.9597 C.ar    1  UNL1        0.0060
     27 C         137.9866  142.2958  163.8771 C.ar    1  UNL1        0.0748
     28 C         138.1578  141.8954  162.4417 C.ar    1  UNL1        0.0233
     29 C         138.4145  140.4603  162.0889 C.ar    1  UNL1       -0.0238
     30 C         138.5857  140.0598  160.6534 C.3     1  UNL1        0.0306
     31 C         138.0227  143.1278  161.5974 C.3     1  UNL1        0.2352
     32 O         137.7681  144.2899  162.5111 O.3     1  UNL1       -0.4404
     33 C         137.7458  143.7757  163.9200 C.2     1  UNL1        0.3413
     34 O         137.5220  144.5971  165.1549 O.2     1  UNL1       -0.2449
@<TRIPOS>BOND
     1    11    12    1
     2    12    13   ar
     3    13    14   ar
     4    14     8    1
     5     8     9    1
     6     8     7    1
     7     7     1    1
     8     1     2    1
     9     2     3    1
    10     3     4    1
    11     4    20    1
    12    20    21    1
    13    21    22    1
    14    21    24    1
    15    24    25   ar
    16    25    26   ar
    17    26    27   ar
    18    27    28   ar
    19    28    29   ar
    20    29    30    1
    21    28    31    1
    22    31    32    1
    23    32    33    1
    24    33    34    2
    25     4     5    1
    26     5     6    1
    27    14    15   ar
    28    15    16   ar
    29    16    17   ar
    30    17    18    1
    31    18    19    3
    32    17    12   ar
    33     6     1    1
    34    29    24   ar
    35    33    27    1
    36     9    10    1
    37    22    23    1
