@<TRIPOS>MOLECULE
*****
 31 35 0 0 0
SMALL
GASTEIGER

@<TRIPOS>ATOM
      1 O         141.0804  145.7007  162.0706 O.2     1  UNL1       -0.2649
      2 C         140.6194  144.5323  161.2506 C.ar    1  UNL1        0.2837
      3 C         140.3614  144.7012  159.7827 C.ar    1  UNL1        0.1392
      4 C         140.4736  145.8895  158.8742 C.ar    1  UNL1        0.0256
      5 C         140.0820  145.4554  157.4929 C.ar    1  UNL1        0.0208
      6 C         139.7277  143.9989  157.5476 C.ar    1  UNL1        0.1006
      7 N         139.9004  143.5328  158.9629 N.ar    1  UNL1       -0.2221
      8 N         139.6974  142.1953  159.6109 N.ar    1  UNL1       -0.1435
      9 C         139.9554  142.0263  161.0789 C.ar    1  UNL1        0.2064
     10 N         140.4164  143.1947  161.8987 N.ar    1  UNL1       -0.2526
     11 C         140.0502  146.3252  156.2712 C.ar    1  UNL1        0.0016
     12 C         140.8672  145.9584  155.0679 C.ar    1  UNL1        0.0009
     13 C         140.8354  146.8282  153.8462 C.ar    1  UNL1        0.0114
     14 C         139.9865  148.0648  153.8278 C.ar    1  UNL1        0.0577
     15 CL        139.9548  148.9345  152.6061 Cl      1  UNL1       -0.0822
     16 C         139.1695  148.4316  155.0311 C.ar    1  UNL1        0.0114
     17 C         139.2014  147.5618  156.2527 C.ar    1  UNL1        0.0009
     18 C         140.6745  143.0257  163.3667 C.ar    1  UNL1        0.0876
     19 C         139.6026  143.3633  164.3603 C.ar    1  UNL1        0.0221
     20 C         139.8607  143.1943  165.8283 C.ar    1  UNL1        0.0358
     21 C         141.1905  142.6877  166.3026 C.ar    1  UNL1        0.1318
     22 N         142.2623  142.3502  165.3090 N.ar    1  UNL1       -0.2276
     23 C         142.0043  142.5192  163.8410 C.ar    1  UNL1        0.1179
     24 N         141.4486  142.5187  167.7705 N.pl3   1  UNL1       -0.2931
     25 C         142.8047  142.0924  168.2494 C.3     1  UNL1        0.0946
     26 C         143.0629  141.9234  169.7173 C.3     1  UNL1        0.0507
     27 C         141.9649  142.1806  170.7064 C.3     1  UNL1        0.1139
     28 O         142.2230  142.0116  172.1743 O.3     1  UNL1       -0.3843
     29 C         140.6088  142.6069  170.2275 C.3     1  UNL1        0.0507
     30 C         140.3506  142.7759  168.7596 C.3     1  UNL1        0.0946
     31 H         141.4148  142.2157  172.6703 H       1  UNL1        0.2103
@<TRIPOS>BOND
     1     1     2    2
     2     2     3   ar
     3     3     4   ar
     4     4     5   ar
     5     5    11    1
     6    11    12   ar
     7    12    13   ar
     8    13    14   ar
     9    14    15    1
    10    14    16   ar
    11    16    17   ar
    12     5     6   ar
    13     6     7   ar
    14     7     8   ar
    15     8     9   ar
    16     9    10   ar
    17    10    18    1
    18    18    19   ar
    19    19    20   ar
    20    20    21   ar
    21    21    24    1
    22    24    25    1
    23    25    26    1
    24    26    27    1
    25    27    28    1
    26    27    29    1
    27    29    30    1
    28    21    22   ar
    29    22    23   ar
    30    10     2   ar
    31    23    18   ar
    32     7     3   ar
    33    30    24    1
    34    17    11   ar
    35    28    31    1
@<TRIPOS>MOLECULE
*****
 31 35 0 0 0
SMALL
GASTEIGER

@<TRIPOS>ATOM
      1 O         143.8617  142.3811  161.8378 O.2     1  UNL1       -0.2649
      2 C         143.6912  141.1417  161.0103 C.ar    1  UNL1        0.2837
      3 C         144.0911  141.1441  159.5646 C.ar    1  UNL1        0.1392
      4 C         144.6766  142.2104  158.6870 C.ar    1  UNL1        0.0256
      5 C         144.8680  141.6299  157.3172 C.ar    1  UNL1        0.0208
      6 C         144.4007  140.2049  157.3482 C.ar    1  UNL1        0.1006
      7 N         143.9206  139.9047  158.7372 N.ar    1  UNL1       -0.2221
      8 N         143.3501  138.6628  159.3554 N.ar    1  UNL1       -0.1435
      9 C         142.9501  138.6603  160.8011 C.ar    1  UNL1        0.2064
     10 N         143.1207  139.8997  161.6285 N.ar    1  UNL1       -0.2526
     11 C         145.4283  142.3484  156.1256 C.ar    1  UNL1        0.0016
     12 C         146.9121  142.5087  155.9758 C.ar    1  UNL1        0.0009
     13 C         147.4723  143.2272  154.7842 C.ar    1  UNL1        0.0114
     14 C         146.5487  143.7852  153.7423 C.ar    1  UNL1        0.0577
     15 CL        147.1090  144.5036  152.5506 Cl      1  UNL1       -0.0822
     16 C         145.0649  143.6249  153.8920 C.ar    1  UNL1        0.0114
     17 C         144.5047  142.9064  155.0837 C.ar    1  UNL1        0.0009
     18 C         142.7207  139.8973  163.0743 C.ar    1  UNL1        0.0876
     19 C         143.6492  139.3327  164.1084 C.ar    1  UNL1        0.0221
     20 C         143.2492  139.3303  165.5540 C.ar    1  UNL1        0.0358
     21 C         141.9209  139.8924  165.9657 C.ar    1  UNL1        0.1318
     22 N         140.9924  140.4569  164.9316 N.ar    1  UNL1       -0.2276
     23 C         141.3923  140.4594  163.4859 C.ar    1  UNL1        0.1179
     24 N         141.5209  139.8900  167.4113 N.pl3   1  UNL1       -0.2931
     25 C         142.5185  139.5096  168.4649 C.3     1  UNL1        0.0946
     26 C         142.1186  139.5072  169.9106 C.3     1  UNL1        0.0507
     27 C         140.7210  139.8851  170.3028 C.3     1  UNL1        0.1139
     28 O         140.3210  139.8827  171.7484 O.3     1  UNL1       -0.3843
     29 C         139.7233  140.2654  169.2492 C.3     1  UNL1        0.0507
     30 C         140.1232  140.2678  167.8035 C.3     1  UNL1        0.0946
     31 H         139.3916  140.1490  171.8272 H       1  UNL1        0.2103
@<TRIPOS>BOND
     1     1     2    2
     2     2     3   ar
     3     3     4   ar
     4     4     5   ar
     5     5    11    1
     6    11    12   ar
     7    12    13   ar
     8    13    14   ar
     9    14    15    1
    10    14    16   ar
    11    16    17   ar
    12     5     6   ar
    13     6     7   ar
    14     7     8   ar
    15     8     9   ar
    16     9    10   ar
    17    10    18    1
    18    18    19   ar
    19    19    20   ar
    20    20    21   ar
    21    21    24    1
    22    24    25    1
    23    25    26    1
    24    26    27    1
    25    27    28    1
    26    27    29    1
    27    29    30    1
    28    21    22   ar
    29    22    23   ar
    30    10     2   ar
    31    23    18   ar
    32     7     3   ar
    33    30    24    1
    34    17    11   ar
    35    28    31    1
@<TRIPOS>MOLECULE
*****
 31 35 0 0 0
SMALL
GASTEIGER

@<TRIPOS>ATOM
      1 O         140.0983  139.2302  161.9849 O.2     1  UNL1       -0.2649
      2 C         141.4377  139.0917  161.3238 C.ar    1  UNL1        0.2837
      3 C         141.5244  138.6853  159.8826 C.ar    1  UNL1        0.1392
      4 C         140.4703  138.3577  158.8670 C.ar    1  UNL1        0.0256
      5 C         141.1582  138.0168  157.5784 C.ar    1  UNL1        0.0208
      6 C         142.6375  138.1337  157.7975 C.ar    1  UNL1        0.1006
      7 N         142.8638  138.5469  159.2216 N.ar    1  UNL1       -0.2221
      8 N         144.1165  138.8149  160.0019 N.ar    1  UNL1       -0.1435
      9 C         144.0298  139.2214  161.4432 C.ar    1  UNL1        0.2064
     10 N         142.6905  139.3598  162.1041 N.ar    1  UNL1       -0.2526
     11 C         140.4850  137.6274  156.2957 C.ar    1  UNL1        0.0016
     12 C         141.0811  136.5566  155.4308 C.ar    1  UNL1        0.0009
     13 C         140.4079  136.1672  154.1482 C.ar    1  UNL1        0.0114
     14 C         139.1385  136.8485  153.7304 C.ar    1  UNL1        0.0577
     15 CL        138.4653  136.4591  152.4478 Cl      1  UNL1       -0.0822
     16 C         138.5424  137.9193  154.5953 C.ar    1  UNL1        0.0114
     17 C         139.2156  138.3087  155.8780 C.ar    1  UNL1        0.0009
     18 C         142.6038  139.7663  163.5455 C.ar    1  UNL1        0.0876
     19 C         142.9110  138.7713  164.6251 C.ar    1  UNL1        0.0221
     20 C         142.8243  139.1777  166.0664 C.ar    1  UNL1        0.0358
     21 C         142.4305  140.5792  166.4280 C.ar    1  UNL1        0.1318
     22 N         142.1233  141.5742  165.3483 N.ar    1  UNL1       -0.2276
     23 C         142.2100  141.1678  163.9071 C.ar    1  UNL1        0.1179
     24 N         142.3437  140.9857  167.8692 N.pl3   1  UNL1       -0.2931
     25 C         142.0463  142.4111  168.2299 C.3     1  UNL1        0.0946
     26 C         141.9596  142.8177  169.6711 C.3     1  UNL1        0.0507
     27 C         142.1703  141.7990  170.7517 C.3     1  UNL1        0.1139
     28 O         142.0836  142.2055  172.1929 O.3     1  UNL1       -0.3843
     29 C         142.4677  140.3737  170.3911 C.3     1  UNL1        0.0507
     30 C         142.5545  139.9670  168.9499 C.3     1  UNL1        0.0946
     31 H         142.2438  141.4329  172.7570 H       1  UNL1        0.2103
@<TRIPOS>BOND
     1     1     2    2
     2     2     3   ar
     3     3     4   ar
     4     4     5   ar
     5     5    11    1
     6    11    12   ar
     7    12    13   ar
     8    13    14   ar
     9    14    15    1
    10    14    16   ar
    11    16    17   ar
    12     5     6   ar
    13     6     7   ar
    14     7     8   ar
    15     8     9   ar
    16     9    10   ar
    17    10    18    1
    18    18    19   ar
    19    19    20   ar
    20    20    21   ar
    21    21    24    1
    22    24    25    1
    23    25    26    1
    24    26    27    1
    25    27    28    1
    26    27    29    1
    27    29    30    1
    28    21    22   ar
    29    22    23   ar
    30    10     2   ar
    31    23    18   ar
    32     7     3   ar
    33    30    24    1
    34    17    11   ar
    35    28    31    1
@<TRIPOS>MOLECULE
*****
 31 35 0 0 0
SMALL
GASTEIGER

@<TRIPOS>ATOM
      1 O         140.8816  137.6067  161.7405 O.2     1  UNL1       -0.2649
      2 C         140.9418  139.0902  161.5265 C.ar    1  UNL1        0.2837
      3 C         140.8140  140.0224  162.6946 C.ar    1  UNL1        0.1392
      4 C         140.6220  139.7732  164.1613 C.ar    1  UNL1        0.0256
      5 C         140.5636  141.1026  164.8535 C.ar    1  UNL1        0.0208
      6 C         140.7195  142.1734  163.8148 C.ar    1  UNL1        0.1006
      7 N         140.8742  141.5058  162.4805 N.ar    1  UNL1       -0.2221
      8 N         141.0622  142.0570  161.0981 N.ar    1  UNL1       -0.1435
      9 C         141.1900  141.1248  159.9300 C.ar    1  UNL1        0.2064
     10 N         141.1298  139.6415  160.1441 N.ar    1  UNL1       -0.2526
     11 C         140.3813  141.3226  166.3261 C.ar    1  UNL1        0.0016
     12 C         140.7481  142.6418  166.9384 C.ar    1  UNL1        0.0009
     13 C         140.5658  142.8618  168.4110 C.ar    1  UNL1        0.0114
     14 C         140.0166  141.7625  169.2712 C.ar    1  UNL1        0.0577
     15 CL        139.8343  141.9825  170.7437 Cl      1  UNL1       -0.0822
     16 C         139.6498  140.4432  168.6589 C.ar    1  UNL1        0.0114
     17 C         139.8321  140.2233  167.1863 C.ar    1  UNL1        0.0009
     18 C         141.2576  138.7092  158.9759 C.ar    1  UNL1        0.0876
     19 C         140.0576  138.3949  158.1324 C.ar    1  UNL1        0.0221
     20 C         140.1854  137.4627  156.9642 C.ar    1  UNL1        0.0358
     21 C         141.5130  136.8448  156.6395 C.ar    1  UNL1        0.1318
     22 N         142.7130  137.1590  157.4830 N.ar    1  UNL1       -0.2276
     23 C         142.5852  138.0912  158.6512 C.ar    1  UNL1        0.1179
     24 N         141.6409  135.9126  155.4714 N.pl3   1  UNL1       -0.2931
     25 C         141.5831  136.4508  154.0724 C.3     1  UNL1        0.0946
     26 C         141.7109  135.5187  152.9042 C.3     1  UNL1        0.0507
     27 C         141.8966  134.0482  153.1349 C.3     1  UNL1        0.1139
     28 O         142.0244  133.1160  151.9668 O.3     1  UNL1       -0.3843
     29 C         141.9544  133.5099  154.5338 C.3     1  UNL1        0.0507
     30 C         141.8266  134.4421  155.7020 C.3     1  UNL1        0.0946
     31 H         142.1377  132.2080  152.2886 H       1  UNL1        0.2103
@<TRIPOS>BOND
     1     1     2    2
     2     2     3   ar
     3     3     4   ar
     4     4     5   ar
     5     5    11    1
     6    11    12   ar
     7    12    13   ar
     8    13    14   ar
     9    14    15    1
    10    14    16   ar
    11    16    17   ar
    12     5     6   ar
    13     6     7   ar
    14     7     8   ar
    15     8     9   ar
    16     9    10   ar
    17    10    18    1
    18    18    19   ar
    19    19    20   ar
    20    20    21   ar
    21    21    24    1
    22    24    25    1
    23    25    26    1
    24    26    27    1
    25    27    28    1
    26    27    29    1
    27    29    30    1
    28    21    22   ar
    29    22    23   ar
    30    10     2   ar
    31    23    18   ar
    32     7     3   ar
    33    30    24    1
    34    17    11   ar
    35    28    31    1
@<TRIPOS>MOLECULE
*****
 31 35 0 0 0
SMALL
GASTEIGER

@<TRIPOS>ATOM
      1 O         142.0807  143.6814  161.7406 O.2     1  UNL1       -0.2649
      2 C         140.7725  143.3982  161.0636 C.ar    1  UNL1        0.2837
      3 C         140.6096  143.6782  159.5990 C.ar    1  UNL1        0.1392
      4 C         141.5536  144.2287  158.5714 C.ar    1  UNL1        0.0256
      5 C         140.8286  144.2857  157.2595 C.ar    1  UNL1        0.0208
      6 C         139.4367  143.7704  157.4762 C.ar    1  UNL1        0.1006
      7 N         139.3013  143.3949  158.9222 N.ar    1  UNL1       -0.2221
      8 N         138.1559  142.8316  159.7099 N.ar    1  UNL1       -0.1435
      9 C         138.3187  142.5516  161.1745 C.ar    1  UNL1        0.2064
     10 N         139.6269  142.8349  161.8513 N.ar    1  UNL1       -0.2526
     11 C         141.3960  144.7726  155.9591 C.ar    1  UNL1        0.0016
     12 C         140.6406  145.7773  155.1405 C.ar    1  UNL1        0.0009
     13 C         141.2080  146.2641  153.8401 C.ar    1  UNL1        0.0114
     14 C         142.5308  145.7463  153.3582 C.ar    1  UNL1        0.0577
     15 CL        143.0981  146.2332  152.0578 Cl      1  UNL1       -0.0822
     16 C         143.2862  144.7416  154.1768 C.ar    1  UNL1        0.0114
     17 C         142.7187  144.2548  155.4772 C.ar    1  UNL1        0.0009
     18 C         139.7897  142.5548  163.3160 C.ar    1  UNL1        0.0876
     19 C         139.7586  143.6836  164.3034 C.ar    1  UNL1        0.0221
     20 C         139.9214  143.4036  165.7680 C.ar    1  UNL1        0.0358
     21 C         140.1152  141.9949  166.2452 C.ar    1  UNL1        0.1318
     22 N         140.1463  140.8661  165.2579 N.ar    1  UNL1       -0.2276
     23 C         139.9835  141.1461  163.7933 C.ar    1  UNL1        0.1179
     24 N         140.2780  141.7148  167.7098 N.pl3   1  UNL1       -0.2931
     25 C         140.5444  142.8413  168.6638 C.3     1  UNL1        0.0946
     26 C         140.7072  142.5613  170.1284 C.3     1  UNL1        0.0507
     27 C         140.6037  141.1548  170.6391 C.3     1  UNL1        0.1139
     28 O         140.7665  140.8747  172.1037 O.3     1  UNL1       -0.3843
     29 C         140.3373  140.0282  169.6851 C.3     1  UNL1        0.0507
     30 C         140.1745  140.3082  168.2205 C.3     1  UNL1        0.0946
     31 H         140.6713  139.9227  172.2633 H       1  UNL1        0.2103
@<TRIPOS>BOND
     1     1     2    2
     2     2     3   ar
     3     3     4   ar
     4     4     5   ar
     5     5    11    1
     6    11    12   ar
     7    12    13   ar
     8    13    14   ar
     9    14    15    1
    10    14    16   ar
    11    16    17   ar
    12     5     6   ar
    13     6     7   ar
    14     7     8   ar
    15     8     9   ar
    16     9    10   ar
    17    10    18    1
    18    18    19   ar
    19    19    20   ar
    20    20    21   ar
    21    21    24    1
    22    24    25    1
    23    25    26    1
    24    26    27    1
    25    27    28    1
    26    27    29    1
    27    29    30    1
    28    21    22   ar
    29    22    23   ar
    30    10     2   ar
    31    23    18   ar
    32     7     3   ar
    33    30    24    1
    34    17    11   ar
    35    28    31    1
@<TRIPOS>MOLECULE
*****
 31 35 0 0 0
SMALL
GASTEIGER

@<TRIPOS>ATOM
      1 O         141.8785  137.7281  161.6446 O.2     1  UNL1       -0.2649
      2 C         142.5925  138.7863  160.8569 C.ar    1  UNL1        0.2837
      3 C         142.7164  138.6574  159.3676 C.ar    1  UNL1        0.1392
      4 C         142.2398  137.6076  158.4080 C.ar    1  UNL1        0.0256
      5 C         142.6593  138.0172  157.0273 C.ar    1  UNL1        0.0208
      6 C         143.3951  139.3200  157.1336 C.ar    1  UNL1        0.1006
      7 N         143.4304  139.7157  158.5800 N.ar    1  UNL1       -0.2221
      8 N         144.0204  140.9029  159.2817 N.ar    1  UNL1       -0.1435
      9 C         143.8965  141.0318  160.7710 C.ar    1  UNL1        0.2064
     10 N         143.1826  139.9736  161.5586 N.ar    1  UNL1       -0.2526
     11 C         142.3902  137.2573  155.7623 C.ar    1  UNL1        0.0016
     12 C         142.4612  137.9571  154.4375 C.ar    1  UNL1        0.0009
     13 C         142.1921  137.1971  153.1725 C.ar    1  UNL1        0.0114
     14 C         141.8519  135.7374  153.2324 C.ar    1  UNL1        0.0577
     15 CL        141.5828  134.9775  151.9674 Cl      1  UNL1       -0.0822
     16 C         141.7809  135.0376  154.5572 C.ar    1  UNL1        0.0114
     17 C         142.0500  135.7976  155.8222 C.ar    1  UNL1        0.0009
     18 C         143.0586  140.1026  163.0480 C.ar    1  UNL1        0.0876
     19 C         143.8374  139.1888  163.9473 C.ar    1  UNL1        0.0221
     20 C         143.7134  139.3178  165.4366 C.ar    1  UNL1        0.0358
     21 C         142.8108  140.3604  166.0266 C.ar    1  UNL1        0.1318
     22 N         142.0321  141.2741  165.1273 N.ar    1  UNL1       -0.2276
     23 C         142.1560  141.1452  163.6380 C.ar    1  UNL1        0.1179
     24 N         142.6868  140.4894  167.5158 N.pl3   1  UNL1       -0.2931
     25 C         142.5924  139.2599  168.3699 C.3     1  UNL1        0.0946
     26 C         142.4685  139.3888  169.8592 C.3     1  UNL1        0.0507
     27 C         142.4389  140.7473  170.4945 C.3     1  UNL1        0.1139
     28 O         142.3149  140.8763  171.9837 O.3     1  UNL1       -0.3843
     29 C         142.5333  141.9768  169.6404 C.3     1  UNL1        0.0507
     30 C         142.6573  141.8479  168.1511 C.3     1  UNL1        0.0946
     31 H         142.3110  141.8151  172.2277 H       1  UNL1        0.2103
@<TRIPOS>BOND
     1     1     2    2
     2     2     3   ar
     3     3     4   ar
     4     4     5   ar
     5     5    11    1
     6    11    12   ar
     7    12    13   ar
     8    13    14   ar
     9    14    15    1
    10    14    16   ar
    11    16    17   ar
    12     5     6   ar
    13     6     7   ar
    14     7     8   ar
    15     8     9   ar
    16     9    10   ar
    17    10    18    1
    18    18    19   ar
    19    19    20   ar
    20    20    21   ar
    21    21    24    1
    22    24    25    1
    23    25    26    1
    24    26    27    1
    25    27    28    1
    26    27    29    1
    27    29    30    1
    28    21    22   ar
    29    22    23   ar
    30    10     2   ar
    31    23    18   ar
    32     7     3   ar
    33    30    24    1
    34    17    11   ar
    35    28    31    1
@<TRIPOS>MOLECULE
*****
 31 35 0 0 0
SMALL
GASTEIGER

@<TRIPOS>ATOM
      1 O         141.1844  138.3606  162.0780 O.2     1  UNL1       -0.2649
      2 C         140.2656  139.1967  161.2372 C.ar    1  UNL1        0.2837
      3 C         140.1314  138.9186  159.7693 C.ar    1  UNL1        0.1392
      4 C         140.7724  137.8958  158.8788 C.ar    1  UNL1        0.0256
      5 C         140.2498  138.0998  157.4877 C.ar    1  UNL1        0.0208
      6 C         139.2858  139.2486  157.5184 C.ar    1  UNL1        0.1006
      7 N         139.2127  139.7547  158.9285 N.ar    1  UNL1       -0.2221
      8 N         138.4281  140.8688  159.5556 N.ar    1  UNL1       -0.1435
      9 C         138.5624  141.1468  161.0235 C.ar    1  UNL1        0.2064
     10 N         139.4810  140.3108  161.8642 N.ar    1  UNL1       -0.2526
     11 C         140.6253  137.2960  156.2781 C.ar    1  UNL1        0.0016
     12 C         141.8880  136.4863  156.2780 C.ar    1  UNL1        0.0009
     13 C         142.2633  135.6826  155.0684 C.ar    1  UNL1        0.0114
     14 C         141.3761  135.6885  153.8590 C.ar    1  UNL1        0.0577
     15 CL        141.7516  134.8847  152.6494 Cl      1  UNL1       -0.0822
     16 C         140.1134  136.4982  153.8591 C.ar    1  UNL1        0.0114
     17 C         139.7380  137.3019  155.0687 C.ar    1  UNL1        0.0009
     18 C         139.6153  140.5889  163.3322 C.ar    1  UNL1        0.0876
     19 C         138.6711  139.9486  164.3062 C.ar    1  UNL1        0.0221
     20 C         138.8053  140.2267  165.7741 C.ar    1  UNL1        0.0358
     21 C         139.8837  141.1450  166.2679 C.ar    1  UNL1        0.1318
     22 N         140.8278  141.7853  165.2939 N.ar    1  UNL1       -0.2276
     23 C         140.6936  141.5072  163.8261 C.ar    1  UNL1        0.1179
     24 N         140.0179  141.4231  167.7358 N.pl3   1  UNL1       -0.2931
     25 C         140.5263  142.7546  168.2034 C.3     1  UNL1        0.0946
     26 C         140.6607  143.0328  169.6713 C.3     1  UNL1        0.0507
     27 C         140.2866  141.9795  170.6715 C.3     1  UNL1        0.1139
     28 O         140.4208  142.2575  172.1394 O.3     1  UNL1       -0.3843
     29 C         139.7782  140.6479  170.2039 C.3     1  UNL1        0.0507
     30 C         139.6439  140.3698  168.7360 C.3     1  UNL1        0.0946
     31 H         140.1391  141.4780  172.6432 H       1  UNL1        0.2103
@<TRIPOS>BOND
     1     1     2    2
     2     2     3   ar
     3     3     4   ar
     4     4     5   ar
     5     5    11    1
     6    11    12   ar
     7    12    13   ar
     8    13    14   ar
     9    14    15    1
    10    14    16   ar
    11    16    17   ar
    12     5     6   ar
    13     6     7   ar
    14     7     8   ar
    15     8     9   ar
    16     9    10   ar
    17    10    18    1
    18    18    19   ar
    19    19    20   ar
    20    20    21   ar
    21    21    24    1
    22    24    25    1
    23    25    26    1
    24    26    27    1
    25    27    28    1
    26    27    29    1
    27    29    30    1
    28    21    22   ar
    29    22    23   ar
    30    10     2   ar
    31    23    18   ar
    32     7     3   ar
    33    30    24    1
    34    17    11   ar
    35    28    31    1
@<TRIPOS>MOLECULE
*****
 31 35 0 0 0
SMALL
GASTEIGER

@<TRIPOS>ATOM
      1 O         140.5492  144.9391  161.5000 O.2     1  UNL1       -0.2649
      2 C         140.3568  143.9219  160.4146 C.ar    1  UNL1        0.2837
      3 C         140.1920  144.3657  158.9913 C.ar    1  UNL1        0.1392
      4 C         140.1761  145.7261  158.3596 C.ar    1  UNL1        0.0256
      5 C         139.9739  145.5495  156.8838 C.ar    1  UNL1        0.0208
      6 C         139.8649  144.0800  156.6034 C.ar    1  UNL1        0.1006
      7 N         139.9996  143.3484  157.9059 N.ar    1  UNL1       -0.2221
      8 N         139.9720  141.8872  158.2438 N.ar    1  UNL1       -0.1435
      9 C         140.1368  141.4434  159.6671 C.ar    1  UNL1        0.2064
     10 N         140.3292  142.4606  160.7525 N.ar    1  UNL1       -0.2526
     11 C         139.8947  146.6494  155.8669 C.ar    1  UNL1        0.0016
     12 C         140.6454  146.5307  154.5737 C.ar    1  UNL1        0.0009
     13 C         140.5661  147.6307  153.5569 C.ar    1  UNL1        0.0114
     14 C         139.7363  148.8492  153.8332 C.ar    1  UNL1        0.0577
     15 CL        139.6570  149.9491  152.8163 Cl      1  UNL1       -0.0822
     16 C         138.9856  148.9679  155.1264 C.ar    1  UNL1        0.0114
     17 C         139.0648  147.8680  156.1433 C.ar    1  UNL1        0.0009
     18 C         140.4940  142.0167  162.1759 C.ar    1  UNL1        0.0876
     19 C         141.8547  142.0113  162.8070 C.ar    1  UNL1        0.0221
     20 C         142.0195  141.5674  164.2303 C.ar    1  UNL1        0.0358
     21 C         140.8236  141.1290  165.0225 C.ar    1  UNL1        0.1318
     22 N         139.4628  141.1345  164.3913 N.ar    1  UNL1       -0.2276
     23 C         139.2980  141.5783  162.9680 C.ar    1  UNL1        0.1179
     24 N         140.9883  140.6852  166.4458 N.pl3   1  UNL1       -0.2931
     25 C         139.8167  140.7179  167.3820 C.3     1  UNL1        0.0946
     26 C         139.9813  140.2741  168.8053 C.3     1  UNL1        0.0507
     27 C         141.3175  139.7975  169.2925 C.3     1  UNL1        0.1139
     28 O         141.4822  139.3536  170.7158 O.3     1  UNL1       -0.3843
     29 C         142.4891  139.7647  168.3563 C.3     1  UNL1        0.0507
     30 C         142.3245  140.2086  166.9330 C.3     1  UNL1        0.0946
     31 H         142.4005  139.0786  170.8645 H       1  UNL1        0.2103
@<TRIPOS>BOND
     1     1     2    2
     2     2     3   ar
     3     3     4   ar
     4     4     5   ar
     5     5    11    1
     6    11    12   ar
     7    12    13   ar
     8    13    14   ar
     9    14    15    1
    10    14    16   ar
    11    16    17   ar
    12     5     6   ar
    13     6     7   ar
    14     7     8   ar
    15     8     9   ar
    16     9    10   ar
    17    10    18    1
    18    18    19   ar
    19    19    20   ar
    20    20    21   ar
    21    21    24    1
    22    24    25    1
    23    25    26    1
    24    26    27    1
    25    27    28    1
    26    27    29    1
    27    29    30    1
    28    21    22   ar
    29    22    23   ar
    30    10     2   ar
    31    23    18   ar
    32     7     3   ar
    33    30    24    1
    34    17    11   ar
    35    28    31    1
@<TRIPOS>MOLECULE
*****
 31 35 0 0 0
SMALL
GASTEIGER

@<TRIPOS>ATOM
      1 O         140.6857  144.1167  161.9823 O.2     1  UNL1       -0.2649
      2 C         141.8231  143.4210  161.2950 C.ar    1  UNL1        0.2837
      3 C         142.1060  143.6958  159.8477 C.ar    1  UNL1        0.1392
      4 C         141.4405  144.5947  158.8482 C.ar    1  UNL1        0.0256
      5 C         142.1666  144.4545  157.5432 C.ar    1  UNL1        0.0208
      6 C         143.2809  143.4690  157.7362 C.ar    1  UNL1        0.1006
      7 N         143.2434  143.0001  159.1605 N.ar    1  UNL1       -0.2221
      8 N         144.0979  142.0295  159.9205 N.ar    1  UNL1       -0.1435
      9 C         143.8151  141.7546  161.3677 C.ar    1  UNL1        0.2064
     10 N         142.6778  142.4503  162.0549 N.ar    1  UNL1       -0.2526
     11 C         141.8365  145.1736  156.2688 C.ar    1  UNL1        0.0016
     12 C         140.7529  146.2107  156.2519 C.ar    1  UNL1        0.0009
     13 C         140.4229  146.9298  154.9775 C.ar    1  UNL1        0.0114
     14 C         141.1764  146.6118  153.7201 C.ar    1  UNL1        0.0577
     15 CL        140.8463  147.3309  152.4457 Cl      1  UNL1       -0.0822
     16 C         142.2600  145.5747  153.7370 C.ar    1  UNL1        0.0114
     17 C         142.5900  144.8556  155.0114 C.ar    1  UNL1        0.0009
     18 C         142.3950  142.1754  163.5022 C.ar    1  UNL1        0.0876
     19 C         143.2680  142.7755  164.5642 C.ar    1  UNL1        0.0221
     20 C         142.9852  142.5006  166.0114 C.ar    1  UNL1        0.0358
     21 C         141.8294  141.6256  166.3967 C.ar    1  UNL1        0.1318
     22 N         140.9563  141.0255  165.3347 N.ar    1  UNL1       -0.2276
     23 C         141.2391  141.3004  163.8875 C.ar    1  UNL1        0.1179
     24 N         141.5465  141.3507  167.8438 N.pl3   1  UNL1       -0.2931
     25 C         142.3025  140.2740  168.5644 C.3     1  UNL1        0.0946
     26 C         142.0197  139.9990  170.0116 C.3     1  UNL1        0.0507
     27 C         140.9809  140.8007  170.7383 C.3     1  UNL1        0.1139
     28 O         140.6980  140.5258  172.1855 O.3     1  UNL1       -0.3843
     29 C         140.2249  141.8774  170.0177 C.3     1  UNL1        0.0507
     30 C         140.5077  142.1524  168.5705 C.3     1  UNL1        0.0946
     31 H         140.0052  141.1277  172.4995 H       1  UNL1        0.2103
@<TRIPOS>BOND
     1     1     2    2
     2     2     3   ar
     3     3     4   ar
     4     4     5   ar
     5     5    11    1
     6    11    12   ar
     7    12    13   ar
     8    13    14   ar
     9    14    15    1
    10    14    16   ar
    11    16    17   ar
    12     5     6   ar
    13     6     7   ar
    14     7     8   ar
    15     8     9   ar
    16     9    10   ar
    17    10    18    1
    18    18    19   ar
    19    19    20   ar
    20    20    21   ar
    21    21    24    1
    22    24    25    1
    23    25    26    1
    24    26    27    1
    25    27    28    1
    26    27    29    1
    27    29    30    1
    28    21    22   ar
    29    22    23   ar
    30    10     2   ar
    31    23    18   ar
    32     7     3   ar
    33    30    24    1
    34    17    11   ar
    35    28    31    1
