@<TRIPOS>MOLECULE
*****
 27 30 0 0 0
SMALL
GASTEIGER

@<TRIPOS>ATOM
      1 C         145.8977  141.7179  163.6918 C.3     1  UNL1        0.0523
      2 C         144.6506  142.4889  163.3752 C.ar    1  UNL1        0.0656
      3 C         144.4582  143.4150  162.2109 C.ar    1  UNL1        0.0739
      4 C         143.0655  143.9677  162.2834 C.ar    1  UNL1        0.2434
      5 N         142.3973  143.3833  163.4926 N.ar    1  UNL1       -0.1277
      6 N         143.3769  142.4694  164.1673 N.ar    1  UNL1       -0.2308
      7 C         143.1268  141.6753  165.4151 C.ar    1  UNL1        0.0825
      8 C         142.8933  140.1961  165.3285 C.ar    1  UNL1        0.0191
      9 C         142.6432  139.4021  166.5762 C.ar    1  UNL1        0.0015
     10 C         142.6266  140.0872  167.9106 C.ar    1  UNL1        0.0001
     11 C         142.3764  139.2931  169.1583 C.ar    1  UNL1        0.0000
     12 C         142.3598  139.9782  170.4926 C.ar    1  UNL1        0.0000
     13 C         142.5932  141.4574  170.5791 C.ar    1  UNL1        0.0000
     14 C         142.8433  142.2515  169.3314 C.ar    1  UNL1        0.0000
     15 C         142.8600  141.5664  167.9971 C.ar    1  UNL1        0.0015
     16 C         143.1101  142.3604  166.7493 C.ar    1  UNL1        0.0191
     17 O         142.4494  144.9349  161.3167 O.3     1  UNL1       -0.4577
     18 C         141.3921  144.4685  160.3603 C.3     1  UNL1        0.2244
     19 C         139.9482  144.7692  160.6335 C.3     1  UNL1        0.1202
     20 N         139.2687  144.1647  161.8263 N.3     1  UNL1       -0.2654
     21 C         139.2410  144.9066  163.1296 C.3     1  UNL1        0.1021
     22 C         138.5615  144.3021  164.3225 C.3     1  UNL1        0.1312
     23 C         138.5338  145.0441  165.6258 C.3     1  UNL1        0.0335
     24 O         137.9098  142.9557  164.2120 O.3     1  UNL1       -0.3559
     25 C         137.9375  142.2137  162.9086 C.3     1  UNL1        0.1312
     26 C         137.2857  140.8673  162.7981 C.3     1  UNL1        0.0335
     27 C         138.6169  142.8182  161.7158 C.3     1  UNL1        0.1021
@<TRIPOS>BOND
     1     1     2    1
     2     2     3   ar
     3     3     4   ar
     4     4    17    1
     5    17    18    1
     6    18    19    1
     7    19    20    1
     8    20    21    1
     9    21    22    1
    10    22    23    1
    11    22    24    1
    12    24    25    1
    13    25    26    1
    14    25    27    1
    15     4     5   ar
    16     5     6   ar
    17     6     7    1
    18     7     8   ar
    19     8     9   ar
    20     9    10   ar
    21    10    11   ar
    22    11    12   ar
    23    12    13   ar
    24    13    14   ar
    25    14    15   ar
    26    15    16   ar
    27     6     2   ar
    28    16     7   ar
    29    27    20    1
    30    15    10   ar
@<TRIPOS>MOLECULE
*****
 27 30 0 0 0
SMALL
GASTEIGER

@<TRIPOS>ATOM
      1 C         145.8151  141.7581  163.5925 C.3     1  UNL1        0.0523
      2 C         144.4512  142.0597  163.0459 C.ar    1  UNL1        0.0656
      3 C         144.1525  142.6688  161.7079 C.ar    1  UNL1        0.0739
      4 C         142.6632  142.7907  161.5763 C.ar    1  UNL1        0.2434
      5 N         142.0415  142.2571  162.8328 N.ar    1  UNL1       -0.1277
      6 N         143.1465  141.8053  163.7410 N.ar    1  UNL1       -0.2308
      7 C         142.9768  141.2046  165.1050 C.ar    1  UNL1        0.0825
      8 C         142.7468  139.7296  165.2515 C.ar    1  UNL1        0.0191
      9 C         142.5771  139.1289  166.6154 C.ar    1  UNL1        0.0015
     10 C         142.6373  140.0032  167.8329 C.ar    1  UNL1        0.0001
     11 C         142.4675  139.4024  169.1967 C.ar    1  UNL1        0.0000
     12 C         142.5277  140.2767  170.4141 C.ar    1  UNL1        0.0000
     13 C         142.7577  141.7517  170.2675 C.ar    1  UNL1        0.0000
     14 C         142.9274  142.3524  168.9036 C.ar    1  UNL1        0.0000
     15 C         142.8672  141.4782  167.6863 C.ar    1  UNL1        0.0015
     16 C         143.0370  142.0789  166.3223 C.ar    1  UNL1        0.0191
     17 O         141.9252  143.3483  160.3955 O.3     1  UNL1       -0.4577
     18 C         141.4635  144.7755  160.4053 C.3     1  UNL1        0.2244
     19 C         140.0315  145.0985  160.7133 C.3     1  UNL1        0.1202
     20 N         139.3317  144.4023  161.8427 N.3     1  UNL1       -0.2654
     21 C         138.7102  143.0549  161.6231 C.3     1  UNL1        0.1021
     22 C         138.0104  142.3587  162.7525 C.3     1  UNL1        0.1312
     23 C         137.3889  141.0113  162.5329 C.3     1  UNL1        0.0335
     24 O         137.9321  143.0099  164.1015 O.3     1  UNL1       -0.3559
     25 C         138.5536  144.3573  164.3211 C.3     1  UNL1        0.1312
     26 C         138.4753  145.0085  165.6701 C.3     1  UNL1        0.0335
     27 C         139.2534  145.0535  163.1918 C.3     1  UNL1        0.1021
@<TRIPOS>BOND
     1     1     2    1
     2     2     3   ar
     3     3     4   ar
     4     4    17    1
     5    17    18    1
     6    18    19    1
     7    19    20    1
     8    20    21    1
     9    21    22    1
    10    22    23    1
    11    22    24    1
    12    24    25    1
    13    25    26    1
    14    25    27    1
    15     4     5   ar
    16     5     6   ar
    17     6     7    1
    18     7     8   ar
    19     8     9   ar
    20     9    10   ar
    21    10    11   ar
    22    11    12   ar
    23    12    13   ar
    24    13    14   ar
    25    14    15   ar
    26    15    16   ar
    27     6     2   ar
    28    16     7   ar
    29    27    20    1
    30    15    10   ar
@<TRIPOS>MOLECULE
*****
 27 30 0 0 0
SMALL
GASTEIGER

@<TRIPOS>ATOM
      1 C         138.3672  144.9330  165.6015 C.3     1  UNL1        0.0523
      2 C         138.6545  144.0831  164.3994 C.ar    1  UNL1        0.0656
      3 C         138.0244  144.2286  163.0458 C.ar    1  UNL1        0.0739
      4 C         138.6028  143.1740  162.1496 C.ar    1  UNL1        0.2434
      5 N         139.5902  142.3767  162.9491 N.ar    1  UNL1       -0.1277
      6 N         139.6222  142.9386  164.3395 N.ar    1  UNL1       -0.2308
      7 C         140.4725  142.4429  165.4715 C.ar    1  UNL1        0.0825
      8 C         141.9267  142.8057  165.5318 C.ar    1  UNL1        0.0191
      9 C         142.7771  142.3102  166.6637 C.ar    1  UNL1        0.0015
     10 C         142.1732  141.4517  167.7354 C.ar    1  UNL1        0.0001
     11 C         143.0236  140.9561  168.8673 C.ar    1  UNL1        0.0000
     12 C         142.4197  140.0977  169.9389 C.ar    1  UNL1        0.0000
     13 C         140.9655  139.7349  169.8787 C.ar    1  UNL1        0.0000
     14 C         140.1152  140.2305  168.7468 C.ar    1  UNL1        0.0000
     15 C         140.7190  141.0889  167.6751 C.ar    1  UNL1        0.0015
     16 C         139.8687  141.5845  166.5431 C.ar    1  UNL1        0.0191
     17 O         138.2548  142.9550  160.7071 O.3     1  UNL1       -0.4577
     18 C         138.3716  141.5853  160.1069 C.3     1  UNL1        0.2244
     19 C         137.8201  140.3968  160.8373 C.3     1  UNL1        0.1202
     20 N         138.7431  139.4825  161.5869 N.3     1  UNL1       -0.2654
     21 C         138.3608  138.9825  162.9485 C.3     1  UNL1        0.1021
     22 C         139.2838  138.0682  163.6981 C.3     1  UNL1        0.1312
     23 C         138.9014  137.5682  165.0596 C.3     1  UNL1        0.0335
     24 O         140.5891  137.6539  163.0863 O.3     1  UNL1       -0.3559
     25 C         140.9715  138.1539  161.7248 C.3     1  UNL1        0.1312
     26 C         142.2768  137.7396  161.1129 C.3     1  UNL1        0.0335
     27 C         140.0485  139.0682  160.9751 C.3     1  UNL1        0.1021
@<TRIPOS>BOND
     1     1     2    1
     2     2     3   ar
     3     3     4   ar
     4     4    17    1
     5    17    18    1
     6    18    19    1
     7    19    20    1
     8    20    21    1
     9    21    22    1
    10    22    23    1
    11    22    24    1
    12    24    25    1
    13    25    26    1
    14    25    27    1
    15     4     5   ar
    16     5     6   ar
    17     6     7    1
    18     7     8   ar
    19     8     9   ar
    20     9    10   ar
    21    10    11   ar
    22    11    12   ar
    23    12    13   ar
    24    13    14   ar
    25    14    15   ar
    26    15    16   ar
    27     6     2   ar
    28    16     7   ar
    29    27    20    1
    30    15    10   ar
@<TRIPOS>MOLECULE
*****
 27 30 0 0 0
SMALL
GASTEIGER

@<TRIPOS>ATOM
      1 C         138.4707  144.9378  165.8233 C.3     1  UNL1        0.0523
      2 C         138.5483  144.0291  164.6325 C.ar    1  UNL1        0.0656
      3 C         138.0534  144.3415  163.2513 C.ar    1  UNL1        0.0739
      4 C         138.3335  143.1538  162.3788 C.ar    1  UNL1        0.2434
      5 N         139.0016  142.1075  163.2208 N.ar    1  UNL1       -0.1277
      6 N         139.1342  142.6484  164.6135 N.ar    1  UNL1       -0.2308
      7 C         139.7456  141.9340  165.7823 C.ar    1  UNL1        0.0825
      8 C         139.1848  140.6181  166.2339 C.ar    1  UNL1        0.0191
      9 C         139.7961  139.9038  167.4027 C.ar    1  UNL1        0.0015
     10 C         140.9683  140.5053  168.1199 C.ar    1  UNL1        0.0001
     11 C         141.5796  139.7910  169.2886 C.ar    1  UNL1        0.0000
     12 C         142.7517  140.3926  170.0057 C.ar    1  UNL1        0.0000
     13 C         143.3125  141.7084  169.5541 C.ar    1  UNL1        0.0000
     14 C         142.7012  142.4228  168.3854 C.ar    1  UNL1        0.0000
     15 C         141.5291  141.8212  167.6682 C.ar    1  UNL1        0.0015
     16 C         140.9177  142.5356  166.4994 C.ar    1  UNL1        0.0191
     17 O         138.0036  143.0337  160.9206 O.3     1  UNL1       -0.4577
     18 C         138.6114  141.9332  160.1023 C.3     1  UNL1        0.2244
     19 C         138.1398  140.5201  160.2775 C.3     1  UNL1        0.1202
     20 N         139.0124  139.5191  160.9751 N.3     1  UNL1       -0.2654
     21 C         140.3339  139.1326  160.3800 C.3     1  UNL1        0.1021
     22 C         141.2065  138.1316  161.0776 C.3     1  UNL1        0.1312
     23 C         142.5280  137.7451  160.4825 C.3     1  UNL1        0.0335
     24 O         140.7576  137.5172  162.3702 O.3     1  UNL1       -0.3559
     25 C         139.4361  137.9037  162.9652 C.3     1  UNL1        0.1312
     26 C         138.9872  137.2893  164.2579 C.3     1  UNL1        0.0335
     27 C         138.5635  138.9047  162.2678 C.3     1  UNL1        0.1021
@<TRIPOS>BOND
     1     1     2    1
     2     2     3   ar
     3     3     4   ar
     4     4    17    1
     5    17    18    1
     6    18    19    1
     7    19    20    1
     8    20    21    1
     9    21    22    1
    10    22    23    1
    11    22    24    1
    12    24    25    1
    13    25    26    1
    14    25    27    1
    15     4     5   ar
    16     5     6   ar
    17     6     7    1
    18     7     8   ar
    19     8     9   ar
    20     9    10   ar
    21    10    11   ar
    22    11    12   ar
    23    12    13   ar
    24    13    14   ar
    25    14    15   ar
    26    15    16   ar
    27     6     2   ar
    28    16     7   ar
    29    27    20    1
    30    15    10   ar
@<TRIPOS>MOLECULE
*****
 27 30 0 0 0
SMALL
GASTEIGER

@<TRIPOS>ATOM
      1 C         138.7117  137.8383  165.4780 C.3     1  UNL1        0.0523
      2 C         139.1325  138.8354  164.4394 C.ar    1  UNL1        0.0656
      3 C         138.6764  138.8660  163.0107 C.ar    1  UNL1        0.0739
      4 C         139.3453  140.0265  162.3354 C.ar    1  UNL1        0.2434
      5 N         140.2147  140.7131  163.3467 N.ar    1  UNL1       -0.1277
      6 N         140.0831  139.9769  164.6470 N.ar    1  UNL1       -0.2308
      7 C         140.7799  140.3218  165.9299 C.ar    1  UNL1        0.0825
      8 C         141.9003  139.4589  166.4302 C.ar    1  UNL1        0.0191
      9 C         142.5971  139.8037  167.7130 C.ar    1  UNL1        0.0015
     10 C         142.1735  141.0114  168.4955 C.ar    1  UNL1        0.0001
     11 C         142.8703  141.3562  169.7783 C.ar    1  UNL1        0.0000
     12 C         142.4467  142.5638  170.5607 C.ar    1  UNL1        0.0000
     13 C         141.3264  143.4266  170.0604 C.ar    1  UNL1        0.0000
     14 C         140.6296  143.0818  168.7776 C.ar    1  UNL1        0.0000
     15 C         141.0532  141.8742  167.9952 C.ar    1  UNL1        0.0015
     16 C         140.3564  141.5294  166.7123 C.ar    1  UNL1        0.0191
     17 O         139.1747  140.4296  160.9008 O.3     1  UNL1       -0.4577
     18 C         138.3683  141.6460  160.5543 C.3     1  UNL1        0.2244
     19 C         139.0336  142.9877  160.4688 C.3     1  UNL1        0.1202
     20 N         139.6722  143.5873  161.6864 N.3     1  UNL1       -0.2654
     21 C         138.8333  143.9287  162.8821 C.3     1  UNL1        0.1021
     22 C         139.4719  144.5283  164.0998 C.3     1  UNL1        0.1312
     23 C         138.6330  144.8697  165.2955 C.3     1  UNL1        0.0335
     24 O         140.9492  144.7864  164.1218 O.3     1  UNL1       -0.3559
     25 C         141.7881  144.4450  162.9261 C.3     1  UNL1        0.1312
     26 C         143.2656  144.7032  162.9481 C.3     1  UNL1        0.0335
     27 C         141.1496  143.8455  161.7084 C.3     1  UNL1        0.1021
@<TRIPOS>BOND
     1     1     2    1
     2     2     3   ar
     3     3     4   ar
     4     4    17    1
     5    17    18    1
     6    18    19    1
     7    19    20    1
     8    20    21    1
     9    21    22    1
    10    22    23    1
    11    22    24    1
    12    24    25    1
    13    25    26    1
    14    25    27    1
    15     4     5   ar
    16     5     6   ar
    17     6     7    1
    18     7     8   ar
    19     8     9   ar
    20     9    10   ar
    21    10    11   ar
    22    11    12   ar
    23    12    13   ar
    24    13    14   ar
    25    14    15   ar
    26    15    16   ar
    27     6     2   ar
    28    16     7   ar
    29    27    20    1
    30    15    10   ar
@<TRIPOS>MOLECULE
*****
 27 30 0 0 0
SMALL
GASTEIGER

@<TRIPOS>ATOM
      1 C         138.3986  144.9592  165.8188 C.3     1  UNL1        0.0523
      2 C         138.5221  144.0838  164.6070 C.ar    1  UNL1        0.0656
      3 C         138.0459  144.4193  163.2247 C.ar    1  UNL1        0.0739
      4 C         138.3731  143.2621  162.3281 C.ar    1  UNL1        0.2434
      5 N         139.0515  142.2114  163.1562 N.ar    1  UNL1       -0.1277
      6 N         139.1436  142.7192  164.5646 N.ar    1  UNL1       -0.2308
      7 C         139.7506  141.9905  165.7268 C.ar    1  UNL1        0.0825
      8 C         139.1732  140.6806  166.1750 C.ar    1  UNL1        0.0191
      9 C         139.7801  139.9519  167.3371 C.ar    1  UNL1        0.0015
     10 C         140.9645  140.5329  168.0510 C.ar    1  UNL1        0.0001
     11 C         141.5715  139.8042  169.2131 C.ar    1  UNL1        0.0000
     12 C         142.7558  140.3853  169.9269 C.ar    1  UNL1        0.0000
     13 C         143.3332  141.6951  169.4787 C.ar    1  UNL1        0.0000
     14 C         142.7263  142.4239  168.3166 C.ar    1  UNL1        0.0000
     15 C         141.5419  141.8428  167.6028 C.ar    1  UNL1        0.0015
     16 C         140.9349  142.5716  166.4406 C.ar    1  UNL1        0.0191
     17 O         138.0743  143.1715  160.8610 O.3     1  UNL1       -0.4577
     18 C         139.1512  142.7629  159.9001 C.3     1  UNL1        0.2244
     19 C         140.4146  143.5658  159.8037 C.3     1  UNL1        0.1202
     20 N         141.5440  143.3043  160.7556 N.3     1  UNL1       -0.2654
     21 C         142.2965  142.0085  160.6887 C.3     1  UNL1        0.1021
     22 C         143.4259  141.7470  161.6406 C.3     1  UNL1        0.1312
     23 C         144.1784  140.4512  161.5737 C.3     1  UNL1        0.0335
     24 O         143.8027  142.7814  162.6594 O.3     1  UNL1       -0.3559
     25 C         143.0502  144.0772  162.7263 C.3     1  UNL1        0.1312
     26 C         143.4271  145.1116  163.7451 C.3     1  UNL1        0.0335
     27 C         141.9209  144.3387  161.7744 C.3     1  UNL1        0.1021
@<TRIPOS>BOND
     1     1     2    1
     2     2     3   ar
     3     3     4   ar
     4     4    17    1
     5    17    18    1
     6    18    19    1
     7    19    20    1
     8    20    21    1
     9    21    22    1
    10    22    23    1
    11    22    24    1
    12    24    25    1
    13    25    26    1
    14    25    27    1
    15     4     5   ar
    16     5     6   ar
    17     6     7    1
    18     7     8   ar
    19     8     9   ar
    20     9    10   ar
    21    10    11   ar
    22    11    12   ar
    23    12    13   ar
    24    13    14   ar
    25    14    15   ar
    26    15    16   ar
    27     6     2   ar
    28    16     7   ar
    29    27    20    1
    30    15    10   ar
@<TRIPOS>MOLECULE
*****
 27 30 0 0 0
SMALL
GASTEIGER

@<TRIPOS>ATOM
      1 C         144.1484  144.0431  163.2151 C.3     1  UNL1        0.0523
      2 C         143.9274  142.5822  162.9563 C.ar    1  UNL1        0.0656
      3 C         144.4348  141.8095  161.7749 C.ar    1  UNL1        0.0739
      4 C         143.9813  140.3872  161.9219 C.ar    1  UNL1        0.2434
      5 N         143.1936  140.2809  163.1940 N.ar    1  UNL1       -0.1277
      6 N         143.1603  141.6375  163.8332 N.ar    1  UNL1       -0.2308
      7 C         142.4794  141.9879  165.1231 C.ar    1  UNL1        0.0825
      8 C         141.0255  142.3568  165.1276 C.ar    1  UNL1        0.0191
      9 C         140.3446  142.7072  166.4174 C.ar    1  UNL1        0.0015
     10 C         141.1177  142.6887  167.7028 C.ar    1  UNL1        0.0001
     11 C         140.4368  143.0391  168.9925 C.ar    1  UNL1        0.0000
     12 C         141.2098  143.0206  170.2778 C.ar    1  UNL1        0.0000
     13 C         142.6637  142.6517  170.2733 C.ar    1  UNL1        0.0000
     14 C         143.3446  142.3013  168.9836 C.ar    1  UNL1        0.0000
     15 C         142.5716  142.3198  167.6983 C.ar    1  UNL1        0.0015
     16 C         143.2525  141.9694  166.4084 C.ar    1  UNL1        0.0191
     17 O         144.2655  139.2678  160.9648 O.3     1  UNL1       -0.4577
     18 C         143.1363  138.5898  160.2470 C.3     1  UNL1        0.2244
     19 C         142.3238  137.5416  160.9478 C.3     1  UNL1        0.1202
     20 N         140.9926  137.8967  161.5410 N.3     1  UNL1       -0.2654
     21 C         140.6817  137.5269  162.9611 C.3     1  UNL1        0.1021
     22 C         139.3506  137.8819  163.5543 C.3     1  UNL1        0.1312
     23 C         139.0397  137.5121  164.9744 C.3     1  UNL1        0.0335
     24 O         138.3303  138.6067  162.7275 O.3     1  UNL1       -0.3559
     25 C         138.6412  138.9765  161.3075 C.3     1  UNL1        0.1312
     26 C         137.6209  139.7014  160.4807 C.3     1  UNL1        0.0335
     27 C         139.9723  138.6215  160.7142 C.3     1  UNL1        0.1021
@<TRIPOS>BOND
     1     1     2    1
     2     2     3   ar
     3     3     4   ar
     4     4    17    1
     5    17    18    1
     6    18    19    1
     7    19    20    1
     8    20    21    1
     9    21    22    1
    10    22    23    1
    11    22    24    1
    12    24    25    1
    13    25    26    1
    14    25    27    1
    15     4     5   ar
    16     5     6   ar
    17     6     7    1
    18     7     8   ar
    19     8     9   ar
    20     9    10   ar
    21    10    11   ar
    22    11    12   ar
    23    12    13   ar
    24    13    14   ar
    25    14    15   ar
    26    15    16   ar
    27     6     2   ar
    28    16     7   ar
    29    27    20    1
    30    15    10   ar
@<TRIPOS>MOLECULE
*****
 27 30 0 0 0
SMALL
GASTEIGER

@<TRIPOS>ATOM
      1 C         141.3120  137.8052  163.4877 C.3     1  UNL1        0.0523
      2 C         140.6070  138.9731  162.8641 C.ar    1  UNL1        0.0656
      3 C         140.5193  139.2687  161.3961 C.ar    1  UNL1        0.0739
      4 C         139.7239  140.5289  161.2237 C.ar    1  UNL1        0.2434
      5 N         139.3202  141.0120  162.5851 N.ar    1  UNL1       -0.1277
      6 N         139.8659  140.0506  163.5989 N.ar    1  UNL1       -0.2308
      7 C         139.6998  140.1492  165.0865 C.ar    1  UNL1        0.0825
      8 C         138.9283  139.0968  165.8263 C.ar    1  UNL1        0.0191
      9 C         138.7622  139.1954  167.3138 C.ar    1  UNL1        0.0015
     10 C         139.3675  140.3463  168.0615 C.ar    1  UNL1        0.0001
     11 C         139.2014  140.4449  169.5490 C.ar    1  UNL1        0.0000
     12 C         139.8067  141.5958  170.2966 C.ar    1  UNL1        0.0000
     13 C         140.5781  142.6482  169.5567 C.ar    1  UNL1        0.0000
     14 C         140.7443  142.5496  168.0692 C.ar    1  UNL1        0.0000
     15 C         140.1390  141.3987  167.3216 C.ar    1  UNL1        0.0015
     16 C         140.3051  141.3001  165.8341 C.ar    1  UNL1        0.0191
     17 O         139.3909  141.1897  159.9190 O.3     1  UNL1       -0.4577
     18 C         138.8951  142.6053  159.9004 C.3     1  UNL1        0.2244
     19 C         139.8607  143.7405  160.0706 C.3     1  UNL1        0.1202
     20 N         140.3206  144.1347  161.4429 N.3     1  UNL1       -0.2654
     21 C         139.3231  144.2899  162.5524 C.3     1  UNL1        0.1021
     22 C         139.7830  144.6840  163.9246 C.3     1  UNL1        0.1312
     23 C         138.7856  144.8392  165.0341 C.3     1  UNL1        0.0335
     24 O         141.2403  144.9229  164.1874 O.3     1  UNL1       -0.3559
     25 C         142.2378  144.7677  163.0779 C.3     1  UNL1        0.1312
     26 C         143.6951  145.0066  163.3407 C.3     1  UNL1        0.0335
     27 C         141.7779  144.3736  161.7057 C.3     1  UNL1        0.1021
@<TRIPOS>BOND
     1     1     2    1
     2     2     3   ar
     3     3     4   ar
     4     4    17    1
     5    17    18    1
     6    18    19    1
     7    19    20    1
     8    20    21    1
     9    21    22    1
    10    22    23    1
    11    22    24    1
    12    24    25    1
    13    25    26    1
    14    25    27    1
    15     4     5   ar
    16     5     6   ar
    17     6     7    1
    18     7     8   ar
    19     8     9   ar
    20     9    10   ar
    21    10    11   ar
    22    11    12   ar
    23    12    13   ar
    24    13    14   ar
    25    14    15   ar
    26    15    16   ar
    27     6     2   ar
    28    16     7   ar
    29    27    20    1
    30    15    10   ar
@<TRIPOS>MOLECULE
*****
 27 30 0 0 0
SMALL
GASTEIGER

@<TRIPOS>ATOM
      1 C         138.4757  145.0370  165.7965 C.3     1  UNL1        0.0523
      2 C         138.6275  144.1235  164.6165 C.ar    1  UNL1        0.0656
      3 C         137.9308  144.2661  163.2956 C.ar    1  UNL1        0.0739
      4 C         138.3754  143.1376  162.4129 C.ar    1  UNL1        0.2434
      5 N         139.3467  142.2977  163.1882 N.ar    1  UNL1       -0.1277
      6 N         139.5025  142.9070  164.5500 N.ar    1  UNL1       -0.2308
      7 C         140.3794  142.3904  165.6520 C.ar    1  UNL1        0.0825
      8 C         141.8443  142.7129  165.6583 C.ar    1  UNL1        0.0191
      9 C         142.7212  142.1964  166.7602 C.ar    1  UNL1        0.0015
     10 C         142.1332  141.3574  167.8559 C.ar    1  UNL1        0.0001
     11 C         143.0101  140.8409  168.9578 C.ar    1  UNL1        0.0000
     12 C         142.4221  140.0020  170.0534 C.ar    1  UNL1        0.0000
     13 C         140.9572  139.6795  170.0470 C.ar    1  UNL1        0.0000
     14 C         140.0803  140.1960  168.9451 C.ar    1  UNL1        0.0000
     15 C         140.6683  141.0350  167.8496 C.ar    1  UNL1        0.0015
     16 C         139.7914  141.5515  166.7476 C.ar    1  UNL1        0.0191
     17 O         137.9273  142.8923  161.0027 O.3     1  UNL1       -0.4577
     18 C         138.9368  142.8307  159.8950 C.3     1  UNL1        0.2244
     19 C         139.9238  143.9461  159.7166 C.3     1  UNL1        0.1202
     20 N         141.3613  143.7432  160.0940 N.3     1  UNL1       -0.2654
     21 C         141.8632  144.2259  161.4225 C.3     1  UNL1        0.1021
     22 C         143.3007  144.0231  161.7999 C.3     1  UNL1        0.1312
     23 C         143.8026  144.5058  163.1284 C.3     1  UNL1        0.0335
     24 O         144.2362  143.3375  160.8487 O.3     1  UNL1       -0.3559
     25 C         143.7343  142.8548  159.5202 C.3     1  UNL1        0.1312
     26 C         144.6699  142.1693  158.5690 C.3     1  UNL1        0.0335
     27 C         142.2968  143.0577  159.1428 C.3     1  UNL1        0.1021
@<TRIPOS>BOND
     1     1     2    1
     2     2     3   ar
     3     3     4   ar
     4     4    17    1
     5    17    18    1
     6    18    19    1
     7    19    20    1
     8    20    21    1
     9    21    22    1
    10    22    23    1
    11    22    24    1
    12    24    25    1
    13    25    26    1
    14    25    27    1
    15     4     5   ar
    16     5     6   ar
    17     6     7    1
    18     7     8   ar
    19     8     9   ar
    20     9    10   ar
    21    10    11   ar
    22    11    12   ar
    23    12    13   ar
    24    13    14   ar
    25    14    15   ar
    26    15    16   ar
    27     6     2   ar
    28    16     7   ar
    29    27    20    1
    30    15    10   ar
