@<TRIPOS>MOLECULE
*****
 29 33 0 0 0
SMALL
GASTEIGER

@<TRIPOS>ATOM
      1 C         139.4262  137.4581  164.8398 C.3     1  UNL1        0.0294
      2 C         139.9667  137.6856  163.4592 C.3     1  UNL1        0.0666
      3 S         141.4487  137.7149  163.2294 S.3     1  UNL1       -0.0756
      4 C         143.1579  141.1445  163.8474 C.ar    1  UNL1        0.2029
      5 N         143.8278  140.2952  164.8867 N.ar    1  UNL1       -0.1250
      6 N         143.2691  138.9072  164.7816 N.ar    1  UNL1       -0.1220
      7 C         142.2538  138.8985  163.6775 C.ar    1  UNL1        0.1933
      8 N         142.1851  140.2812  163.1001 N.ar    1  UNL1       -0.2860
      9 C         141.2992  140.7231  161.9732 C.3     1  UNL1        0.1341
     10 C         144.7732  142.4007  161.3053 C.3     1  UNL1        0.0556
     11 C         144.1580  143.1786  162.4306 C.ar    1  UNL1        0.1001
     12 N         144.1773  144.6705  162.5851 N.ar    1  UNL1       -0.2085
     13 C         143.4467  145.0152  163.8490 C.ar    1  UNL1        0.2849
     14 O         142.9760  143.7363  164.4757 O.2     1  UNL1       -0.4283
     15 C         143.4156  142.6012  163.5991 C.ar    1  UNL1        0.1964
     16 C         138.4630  138.4393  165.4394 C.3     1  UNL1        0.0730
     17 N         138.6463  139.9094  165.2043 N.3     1  UNL1       -0.2726
     18 C         138.0530  140.7029  164.0781 C.3     1  UNL1        0.0721
     19 C         138.4951  142.1280  164.2320 C.3     1  UNL1        0.0190
     20 C         139.3616  142.2153  165.4533 C.3     1  UNL1        0.0201
     21 C         139.6345  143.6864  165.3471 C.3     1  UNL1        0.0061
     22 C         140.2278  142.8929  166.4734 C.3     1  UNL1        0.0237
     23 C         139.4551  140.8441  166.0542 C.3     1  UNL1        0.0724
     24 C         141.0703  142.8260  167.7125 C.ar    1  UNL1       -0.0225
     25 C         140.5096  143.2836  169.0264 C.ar    1  UNL1       -0.0043
     26 C         141.3522  143.2167  170.2655 C.ar    1  UNL1       -0.0003
     27 C         142.7555  142.6922  170.1908 C.ar    1  UNL1       -0.0000
     28 C         143.3163  142.2346  168.8770 C.ar    1  UNL1       -0.0003
     29 C         142.4737  142.3015  167.6378 C.ar    1  UNL1       -0.0043
@<TRIPOS>BOND
     1    10    11    1
     2    11    12   ar
     3    12    13   ar
     4    13    14   ar
     5    14    15   ar
     6    15     4    1
     7     4     5   ar
     8     5     6   ar
     9     6     7   ar
    10     7     3    1
    11     3     2    1
    12     2     1    1
    13     1    16    1
    14    16    17    1
    15    17    18    1
    16    18    19    1
    17    20    19    1
    18    20    21    1
    19    21    22    1
    20    22    24    1
    21    24    25   ar
    22    25    26   ar
    23    26    27   ar
    24    27    28   ar
    25    28    29   ar
    26    20    23    1
    27     7     8   ar
    28     8     9    1
    29    15    11   ar
    30     8     4   ar
    31    23    17    1
    32    22    20    1
    33    29    24   ar
@<TRIPOS>MOLECULE
*****
 29 33 0 0 0
SMALL
GASTEIGER

@<TRIPOS>ATOM
      1 C         143.6304  139.1947  161.8996 C.3     1  UNL1        0.0294
      2 C         144.2100  139.0695  163.2774 C.3     1  UNL1        0.0666
      3 S         144.3214  140.2794  164.1570 S.3     1  UNL1       -0.0756
      4 C         142.3757  141.2607  167.3690 C.ar    1  UNL1        0.2029
      5 N         142.0808  139.7922  167.2887 N.ar    1  UNL1       -0.1250
      6 N         142.7737  139.2458  166.0757 N.ar    1  UNL1       -0.1220
      7 C         143.4969  140.3767  165.4063 C.ar    1  UNL1        0.1933
      8 N         143.2510  141.6220  166.2056 N.ar    1  UNL1       -0.2860
      9 C         143.7863  142.9886  165.8959 C.3     1  UNL1        0.1341
     10 C         144.0973  142.3585  169.9147 C.3     1  UNL1        0.0556
     11 C         142.6734  142.7072  169.5971 C.ar    1  UNL1        0.1001
     12 N         141.7908  143.6217  170.3938 N.ar    1  UNL1       -0.2085
     13 C         140.4540  143.6823  169.7161 C.ar    1  UNL1        0.2849
     14 O         140.5104  142.8052  168.5005 O.2     1  UNL1       -0.4283
     15 C         141.8821  142.2026  168.4270 C.ar    1  UNL1        0.1964
     16 C         142.2646  138.6475  161.6079 C.3     1  UNL1        0.0730
     17 N         141.2566  138.5193  162.7113 N.3     1  UNL1       -0.2726
     18 C         140.8116  137.2395  163.3547 C.3     1  UNL1        0.0721
     19 C         139.7966  137.5777  164.4060 C.3     1  UNL1        0.0190
     20 C         139.6142  139.0666  164.4124 C.3     1  UNL1        0.0201
     21 C         138.5927  139.0948  165.5104 C.3     1  UNL1        0.0061
     22 C         139.0377  140.3746  164.8670 C.3     1  UNL1        0.0237
     23 C         140.5166  139.6485  163.3649 C.3     1  UNL1        0.0724
     24 C         138.9617  141.8687  164.7579 C.ar    1  UNL1       -0.0225
     25 C         140.1846  142.7018  165.0038 C.ar    1  UNL1       -0.0043
     26 C         140.1086  144.1959  164.8948 C.ar    1  UNL1       -0.0003
     27 C         138.8097  144.8569  164.5399 C.ar    1  UNL1       -0.0000
     28 C         137.5868  144.0238  164.2940 C.ar    1  UNL1       -0.0003
     29 C         137.6628  142.5297  164.4030 C.ar    1  UNL1       -0.0043
@<TRIPOS>BOND
     1    10    11    1
     2    11    12   ar
     3    12    13   ar
     4    13    14   ar
     5    14    15   ar
     6    15     4    1
     7     4     5   ar
     8     5     6   ar
     9     6     7   ar
    10     7     3    1
    11     3     2    1
    12     2     1    1
    13     1    16    1
    14    16    17    1
    15    17    18    1
    16    18    19    1
    17    20    19    1
    18    20    21    1
    19    21    22    1
    20    22    24    1
    21    24    25   ar
    22    25    26   ar
    23    26    27   ar
    24    27    28   ar
    25    28    29   ar
    26    20    23    1
    27     7     8   ar
    28     8     9    1
    29    15    11   ar
    30     8     4   ar
    31    23    17    1
    32    22    20    1
    33    29    24   ar
@<TRIPOS>MOLECULE
*****
 29 33 0 0 0
SMALL
GASTEIGER

@<TRIPOS>ATOM
      1 C         143.3217  138.1106  162.1324 C.3     1  UNL1        0.0294
      2 C         144.3478  139.0464  162.6995 C.3     1  UNL1        0.0666
      3 S         143.9133  140.2659  163.4571 S.3     1  UNL1       -0.0756
      4 C         142.8573  140.7142  167.1651 C.ar    1  UNL1        0.2029
      5 N         142.8655  139.2191  167.0448 N.ar    1  UNL1       -0.1250
      6 N         143.2621  138.8691  165.6411 N.ar    1  UNL1       -0.1220
      7 C         143.4990  140.1480  164.8939 C.ar    1  UNL1        0.1933
      8 N         143.2488  141.2884  165.8357 N.ar    1  UNL1       -0.2860
      9 C         143.3690  142.7468  165.5061 C.3     1  UNL1        0.1341
     10 C         140.0917  140.4838  168.8822 C.3     1  UNL1        0.0556
     11 C         141.2460  141.3918  169.1875 C.ar    1  UNL1        0.1001
     12 N         141.3319  142.3532  170.3356 N.ar    1  UNL1       -0.2085
     13 C         142.6561  143.0534  170.2560 C.ar    1  UNL1        0.2849
     14 O         143.3887  142.5246  169.0586 O.2     1  UNL1       -0.4283
     15 C         142.5172  141.4977  168.3983 C.ar    1  UNL1        0.1964
     16 C         141.9144  138.5826  161.9158 C.3     1  UNL1        0.0730
     17 N         140.9053  138.4636  163.0192 N.3     1  UNL1       -0.2726
     18 C         140.4259  137.1858  163.6416 C.3     1  UNL1        0.0721
     19 C         139.4227  137.5341  164.7009 C.3     1  UNL1        0.0190
     20 C         139.2820  139.0271  164.7333 C.3     1  UNL1        0.0201
     21 C         138.2637  139.0649  165.8340 C.3     1  UNL1        0.0061
     22 C         138.7431  140.3427  165.2116 C.3     1  UNL1        0.0237
     23 C         140.1983  139.6016  163.6939 C.3     1  UNL1        0.0724
     24 C         138.7087  141.8400  165.1284 C.ar    1  UNL1       -0.0225
     25 C         137.6827  142.5202  164.2712 C.ar    1  UNL1       -0.0043
     26 C         137.6484  144.0175  164.1880 C.ar    1  UNL1       -0.0003
     27 C         138.6400  144.8346  164.9620 C.ar    1  UNL1       -0.0000
     28 C         139.6659  144.1544  165.8192 C.ar    1  UNL1       -0.0003
     29 C         139.7003  142.6571  165.9024 C.ar    1  UNL1       -0.0043
@<TRIPOS>BOND
     1    10    11    1
     2    11    12   ar
     3    12    13   ar
     4    13    14   ar
     5    14    15   ar
     6    15     4    1
     7     4     5   ar
     8     5     6   ar
     9     6     7   ar
    10     7     3    1
    11     3     2    1
    12     2     1    1
    13     1    16    1
    14    16    17    1
    15    17    18    1
    16    18    19    1
    17    20    19    1
    18    20    21    1
    19    21    22    1
    20    22    24    1
    21    24    25   ar
    22    25    26   ar
    23    26    27   ar
    24    27    28   ar
    25    28    29   ar
    26    20    23    1
    27     7     8   ar
    28     8     9    1
    29    15    11   ar
    30     8     4   ar
    31    23    17    1
    32    22    20    1
    33    29    24   ar
@<TRIPOS>MOLECULE
*****
 29 33 0 0 0
SMALL
GASTEIGER

@<TRIPOS>ATOM
      1 C         144.8529  139.6413  163.7807 C.3     1  UNL1        0.0294
      2 C         145.4165  141.0126  164.0090 C.3     1  UNL1        0.0666
      3 S         145.1054  142.1209  163.0474 S.3     1  UNL1       -0.0756
      4 C         141.7237  143.9749  163.4865 C.ar    1  UNL1        0.2029
      5 N         142.6868  145.0023  164.0032 N.ar    1  UNL1       -0.1250
      6 N         144.0708  144.4328  163.9016 N.ar    1  UNL1       -0.1220
      7 C         143.9630  143.0535  163.3221 C.ar    1  UNL1        0.1933
      8 N         142.5125  142.7704  163.0655 N.ar    1  UNL1       -0.2860
      9 C         141.9496  141.5051  162.4892 C.3     1  UNL1        0.1341
     10 C         140.0397  145.0140  160.8914 C.3     1  UNL1        0.0556
     11 C         139.4595  144.6031  162.2122 C.ar    1  UNL1        0.1001
     12 N         138.0033  144.5977  162.5721 N.ar    1  UNL1       -0.2085
     13 C         137.8773  144.1167  163.9873 C.ar    1  UNL1        0.2849
     14 O         139.2557  143.8249  164.5021 O.2     1  UNL1       -0.4283
     15 C         140.2335  144.1255  163.4050 C.ar    1  UNL1        0.1964
     16 C         144.1932  138.9042  164.9084 C.3     1  UNL1        0.0730
     17 N         142.6987  138.7845  164.9535 N.3     1  UNL1       -0.2726
     18 C         141.8539  137.9413  164.0450 C.3     1  UNL1        0.0721
     19 C         140.4197  138.1227  164.4451 C.3     1  UNL1        0.0190
     20 C         140.3780  139.0781  165.6008 C.3     1  UNL1        0.0201
     21 C         138.8873  139.0589  165.7665 C.3     1  UNL1        0.0061
     22 C         139.7321  139.9021  166.6749 C.3     1  UNL1        0.0237
     23 C         141.7866  139.4871  165.9150 C.3     1  UNL1        0.0724
     24 C         139.8470  140.8647  167.8196 C.ar    1  UNL1       -0.0225
     25 C         139.4696  140.4310  169.2050 C.ar    1  UNL1       -0.0043
     26 C         139.5844  141.3935  170.3497 C.ar    1  UNL1       -0.0003
     27 C         140.0767  142.7898  170.1088 C.ar    1  UNL1       -0.0000
     28 C         140.4541  143.2236  168.7234 C.ar    1  UNL1       -0.0003
     29 C         140.3392  142.2610  167.5787 C.ar    1  UNL1       -0.0043
@<TRIPOS>BOND
     1    10    11    1
     2    11    12   ar
     3    12    13   ar
     4    13    14   ar
     5    14    15   ar
     6    15     4    1
     7     4     5   ar
     8     5     6   ar
     9     6     7   ar
    10     7     3    1
    11     3     2    1
    12     2     1    1
    13     1    16    1
    14    16    17    1
    15    17    18    1
    16    18    19    1
    17    20    19    1
    18    20    21    1
    19    21    22    1
    20    22    24    1
    21    24    25   ar
    22    25    26   ar
    23    26    27   ar
    24    27    28   ar
    25    28    29   ar
    26    20    23    1
    27     7     8   ar
    28     8     9    1
    29    15    11   ar
    30     8     4   ar
    31    23    17    1
    32    22    20    1
    33    29    24   ar
@<TRIPOS>MOLECULE
*****
 29 33 0 0 0
SMALL
GASTEIGER

@<TRIPOS>ATOM
      1 C         137.8098  140.4090  164.0007 C.3     1  UNL1        0.0294
      2 C         137.4615  141.4547  162.9832 C.3     1  UNL1        0.0666
      3 S         138.2854  142.7039  162.8794 S.3     1  UNL1       -0.0756
      4 C         142.0334  142.4251  163.8492 C.ar    1  UNL1        0.2029
      5 N         141.4949  143.2234  164.9994 N.ar    1  UNL1       -0.1250
      6 N         140.0254  143.4249  164.7761 N.ar    1  UNL1       -0.1220
      7 C         139.6556  142.7513  163.4879 C.ar    1  UNL1        0.1933
      8 N         140.8966  142.1334  162.9150 N.ar    1  UNL1       -0.2860
      9 C         140.9853  141.3596  161.6331 C.3     1  UNL1        0.1341
     10 C         144.0043  143.3090  161.4030 C.3     1  UNL1        0.0556
     11 C         144.3643  142.4006  162.5411 C.ar    1  UNL1        0.1001
     12 N         145.6935  141.7389  162.7547 N.ar    1  UNL1       -0.2085
     13 C         145.6090  140.9238  164.0110 C.ar    1  UNL1        0.2849
     14 O         144.2276  141.0816  164.5739 O.2     1  UNL1       -0.4283
     15 C         143.4584  141.9943  163.6655 C.ar    1  UNL1        0.1964
     16 C         138.7340  139.2855  163.6354 C.3     1  UNL1        0.0730
     17 N         139.9921  139.0634  164.4216 N.3     1  UNL1       -0.2726
     18 C         141.1309  138.1696  164.0290 C.3     1  UNL1        0.0721
     19 C         142.1748  138.2500  165.1032 C.3     1  UNL1        0.0190
     20 C         141.6811  139.1934  166.1597 C.3     1  UNL1        0.0201
     21 C         142.8806  139.0712  167.0520 C.3     1  UNL1        0.0061
     22 C         141.7417  139.9650  167.4446 C.3     1  UNL1        0.0237
     23 C         140.3320  139.6962  165.7384 C.3     1  UNL1        0.0724
     24 C         141.1192  140.9265  168.4131 C.ar    1  UNL1       -0.0225
     25 C         141.6456  142.3268  168.5229 C.ar    1  UNL1       -0.0043
     26 C         141.0230  143.2882  169.4914 C.ar    1  UNL1       -0.0003
     27 C         139.8741  142.8494  170.3502 C.ar    1  UNL1       -0.0000
     28 C         139.3478  141.4491  170.2404 C.ar    1  UNL1       -0.0003
     29 C         139.9703  140.4876  169.2719 C.ar    1  UNL1       -0.0043
@<TRIPOS>BOND
     1    10    11    1
     2    11    12   ar
     3    12    13   ar
     4    13    14   ar
     5    14    15   ar
     6    15     4    1
     7     4     5   ar
     8     5     6   ar
     9     6     7   ar
    10     7     3    1
    11     3     2    1
    12     2     1    1
    13     1    16    1
    14    16    17    1
    15    17    18    1
    16    18    19    1
    17    20    19    1
    18    20    21    1
    19    21    22    1
    20    22    24    1
    21    24    25   ar
    22    25    26   ar
    23    26    27   ar
    24    27    28   ar
    25    28    29   ar
    26    20    23    1
    27     7     8   ar
    28     8     9    1
    29    15    11   ar
    30     8     4   ar
    31    23    17    1
    32    22    20    1
    33    29    24   ar
@<TRIPOS>MOLECULE
*****
 29 33 0 0 0
SMALL
GASTEIGER

@<TRIPOS>ATOM
      1 C         145.2782  141.9579  162.9033 C.3     1  UNL1        0.0294
      2 C         145.0842  142.6401  161.5815 C.3     1  UNL1        0.0666
      3 S         144.2579  141.9861  160.5141 S.3     1  UNL1       -0.0756
      4 C         141.7158  139.1964  161.4202 C.ar    1  UNL1        0.2029
      5 N         142.9502  138.3876  161.1512 N.ar    1  UNL1       -0.1250
      6 N         144.0527  139.3342  160.7790 N.ar    1  UNL1       -0.1220
      7 C         143.4997  140.7280  160.8180 C.ar    1  UNL1        0.1933
      8 N         142.0555  140.6429  161.2143 N.ar    1  UNL1       -0.2860
      9 C         141.1160  141.8009  161.3762 C.3     1  UNL1        0.1341
     10 C         141.1163  137.2974  164.0055 C.3     1  UNL1        0.0556
     11 C         140.1014  137.7811  163.0125 C.ar    1  UNL1        0.1001
     12 N         138.6327  137.4768  163.0335 N.ar    1  UNL1       -0.2085
     13 C         138.0006  138.1617  161.8582 C.ar    1  UNL1        0.2849
     14 O         139.0786  138.8892  161.1108 O.2     1  UNL1       -0.4283
     15 C         140.3770  138.6539  161.8242 C.ar    1  UNL1        0.1964
     16 C         144.8196  142.6249  164.1661 C.3     1  UNL1        0.0730
     17 N         143.4940  143.3259  164.2053 N.3     1  UNL1       -0.2726
     18 C         143.2157  144.7139  163.7092 C.3     1  UNL1        0.0721
     19 C         141.7637  145.0078  163.9448 C.3     1  UNL1        0.0190
     20 C         141.1448  143.8015  164.5865 C.3     1  UNL1        0.0201
     21 C         139.7618  144.3726  164.6926 C.3     1  UNL1        0.0061
     22 C         140.0402  142.9846  165.1887 C.3     1  UNL1        0.0237
     23 C         142.2142  142.7620  164.7475 C.3     1  UNL1        0.0724
     24 C         139.5632  141.7117  165.8228 C.ar    1  UNL1       -0.0225
     25 C         138.6032  140.8223  165.0896 C.ar    1  UNL1       -0.0043
     26 C         138.1262  139.5494  165.7237 C.ar    1  UNL1       -0.0003
     27 C         138.6092  139.1658  167.0910 C.ar    1  UNL1       -0.0000
     28 C         139.5691  140.0552  167.8242 C.ar    1  UNL1       -0.0003
     29 C         140.0461  141.3281  167.1901 C.ar    1  UNL1       -0.0043
@<TRIPOS>BOND
     1    10    11    1
     2    11    12   ar
     3    12    13   ar
     4    13    14   ar
     5    14    15   ar
     6    15     4    1
     7     4     5   ar
     8     5     6   ar
     9     6     7   ar
    10     7     3    1
    11     3     2    1
    12     2     1    1
    13     1    16    1
    14    16    17    1
    15    17    18    1
    16    18    19    1
    17    20    19    1
    18    20    21    1
    19    21    22    1
    20    22    24    1
    21    24    25   ar
    22    25    26   ar
    23    26    27   ar
    24    27    28   ar
    25    28    29   ar
    26    20    23    1
    27     7     8   ar
    28     8     9    1
    29    15    11   ar
    30     8     4   ar
    31    23    17    1
    32    22    20    1
    33    29    24   ar
@<TRIPOS>MOLECULE
*****
 29 33 0 0 0
SMALL
GASTEIGER

@<TRIPOS>ATOM
      1 C         143.2344  144.8380  163.4097 C.3     1  UNL1        0.0294
      2 C         141.8513  145.2563  163.8126 C.3     1  UNL1        0.0666
      3 S         140.7037  145.0627  162.8663 S.3     1  UNL1       -0.0756
      4 C         138.8602  141.6514  163.0385 C.ar    1  UNL1        0.2029
      5 N         137.8183  142.5726  163.6005 N.ar    1  UNL1       -0.1250
      6 N         138.3821  143.9626  163.6044 N.ar    1  UNL1       -0.1220
      7 C         139.7724  143.9005  163.0448 C.ar    1  UNL1        0.1933
      8 N         140.0679  142.4721  162.6951 N.ar    1  UNL1       -0.2860
      9 C         141.3466  141.9551  162.1054 C.3     1  UNL1        0.1341
     10 C         137.7896  140.1492  160.3465 C.3     1  UNL1        0.0556
     11 C         138.2270  139.4792  161.6152 C.ar    1  UNL1        0.1001
     12 N         138.2492  138.0010  161.8693 N.ar    1  UNL1       -0.2085
     13 C         138.7550  137.7779  163.2638 C.ar    1  UNL1        0.2849
     14 O         139.0454  139.1182  163.8715 O.2     1  UNL1       -0.4283
     15 C         138.7191  140.1696  162.8526 C.ar    1  UNL1        0.1964
     16 C         144.1411  144.1835  164.4094 C.3     1  UNL1        0.0730
     17 N         144.2592  142.6887  164.4490 N.3     1  UNL1       -0.2726
     18 C         145.1513  141.8514  163.5812 C.3     1  UNL1        0.0721
     19 C         144.9493  140.4140  163.9593 C.3     1  UNL1        0.0190
     20 C         143.9324  140.3628  165.0608 C.3     1  UNL1        0.0201
     21 C         143.9436  138.8709  165.2153 C.3     1  UNL1        0.0061
     22 C         143.0515  139.7081  166.0832 C.3     1  UNL1        0.0237
     23 C         143.5059  141.7687  165.3635 C.3     1  UNL1        0.0724
     24 C         142.0278  139.8135  167.1745 C.ar    1  UNL1       -0.0225
     25 C         142.4547  139.7559  168.6113 C.ar    1  UNL1       -0.0043
     26 C         141.4310  139.8613  169.7026 C.ar    1  UNL1       -0.0003
     27 C         139.9805  140.0243  169.3571 C.ar    1  UNL1       -0.0000
     28 C         139.5536  140.0820  167.9203 C.ar    1  UNL1       -0.0003
     29 C         140.5773  139.9766  166.8289 C.ar    1  UNL1       -0.0043
@<TRIPOS>BOND
     1    10    11    1
     2    11    12   ar
     3    12    13   ar
     4    13    14   ar
     5    14    15   ar
     6    15     4    1
     7     4     5   ar
     8     5     6   ar
     9     6     7   ar
    10     7     3    1
    11     3     2    1
    12     2     1    1
    13     1    16    1
    14    16    17    1
    15    17    18    1
    16    18    19    1
    17    20    19    1
    18    20    21    1
    19    21    22    1
    20    22    24    1
    21    24    25   ar
    22    25    26   ar
    23    26    27   ar
    24    27    28   ar
    25    28    29   ar
    26    20    23    1
    27     7     8   ar
    28     8     9    1
    29    15    11   ar
    30     8     4   ar
    31    23    17    1
    32    22    20    1
    33    29    24   ar
@<TRIPOS>MOLECULE
*****
 29 33 0 0 0
SMALL
GASTEIGER

@<TRIPOS>ATOM
      1 C         140.7725  139.9995  160.5011 C.3     1  UNL1        0.0294
      2 C         141.4499  138.7185  160.1135 C.3     1  UNL1        0.0666
      3 S         142.3000  137.9881  161.1104 S.3     1  UNL1       -0.0756
      4 C         141.6190  138.3984  164.9096 C.ar    1  UNL1        0.2029
      5 N         140.8069  137.1758  164.5998 N.ar    1  UNL1       -0.1250
      6 N         140.9631  136.8733  163.1389 N.ar    1  UNL1       -0.1220
      7 C         141.8718  137.9090  162.5458 C.ar    1  UNL1        0.1933
      8 N         142.2772  138.8515  163.6400 N.ar    1  UNL1       -0.2860
      9 C         143.1818  140.0386  163.4910 C.3     1  UNL1        0.1341
     10 C         139.2610  139.9950  166.5034 C.3     1  UNL1        0.0556
     11 C         140.6661  139.7867  166.9855 C.ar    1  UNL1        0.1001
     12 N         141.2340  140.2758  168.2848 N.ar    1  UNL1       -0.2085
     13 C         142.6688  139.8442  168.3552 C.ar    1  UNL1        0.2849
     14 O         142.9877  139.0883  167.0994 O.2     1  UNL1       -0.4283
     15 C         141.7499  139.0528  166.2529 C.ar    1  UNL1        0.1964
     16 C         139.3577  139.9789  160.9992 C.3     1  UNL1        0.0730
     17 N         138.9199  140.9507  162.0546 N.3     1  UNL1       -0.2726
     18 C         137.5020  141.2703  162.4253 C.3     1  UNL1        0.0721
     19 C         137.5291  142.2907  163.5244 C.3     1  UNL1        0.0190
     20 C         138.9636  142.6018  163.8330 C.3     1  UNL1        0.0201
     21 C         138.6782  143.6008  164.9149 C.3     1  UNL1        0.0061
     22 C         140.0961  143.2812  164.5442 C.3     1  UNL1        0.0237
     23 C         139.8233  141.7736  162.9246 C.3     1  UNL1        0.0724
     24 C         141.5686  143.4889  164.7408 C.ar    1  UNL1       -0.0225
     25 C         142.2942  144.5247  163.9342 C.ar    1  UNL1       -0.0043
     26 C         143.7667  144.7325  164.1308 C.ar    1  UNL1       -0.0003
     27 C         144.5135  143.9044  165.1340 C.ar    1  UNL1       -0.0000
     28 C         143.7879  142.8686  165.9407 C.ar    1  UNL1       -0.0003
     29 C         142.3155  142.6609  165.7441 C.ar    1  UNL1       -0.0043
@<TRIPOS>BOND
     1    10    11    1
     2    11    12   ar
     3    12    13   ar
     4    13    14   ar
     5    14    15   ar
     6    15     4    1
     7     4     5   ar
     8     5     6   ar
     9     6     7   ar
    10     7     3    1
    11     3     2    1
    12     2     1    1
    13     1    16    1
    14    16    17    1
    15    17    18    1
    16    18    19    1
    17    20    19    1
    18    20    21    1
    19    21    22    1
    20    22    24    1
    21    24    25   ar
    22    25    26   ar
    23    26    27   ar
    24    27    28   ar
    25    28    29   ar
    26    20    23    1
    27     7     8   ar
    28     8     9    1
    29    15    11   ar
    30     8     4   ar
    31    23    17    1
    32    22    20    1
    33    29    24   ar
@<TRIPOS>MOLECULE
*****
 29 33 0 0 0
SMALL
GASTEIGER

@<TRIPOS>ATOM
      1 C         138.9376  144.9073  162.9343 C.3     1  UNL1        0.0294
      2 C         139.9141  145.7867  162.2110 C.3     1  UNL1        0.0666
      3 S         140.7458  145.2254  161.0961 S.3     1  UNL1       -0.0756
      4 C         142.9533  142.0828  161.6593 C.ar    1  UNL1        0.2029
      5 N         143.9088  143.1784  162.0293 N.ar    1  UNL1       -0.1250
      6 N         143.1981  144.4889  161.8634 N.ar    1  UNL1       -0.1220
      7 C         141.8035  144.2033  161.3908 C.ar    1  UNL1        0.1933
      8 N         141.6521  142.7163  161.2646 N.ar    1  UNL1       -0.2860
      9 C         140.4166  141.9903  160.8215 C.3     1  UNL1        0.1341
     10 C         142.1018  139.9897  164.0137 C.3     1  UNL1        0.0556
     11 C         142.8560  139.6500  162.7623 C.ar    1  UNL1        0.1001
     12 N         143.3512  138.2885  162.3735 N.ar    1  UNL1       -0.2085
     13 C         144.0487  138.4092  161.0510 C.ar    1  UNL1        0.2849
     14 O         143.9845  139.8453  160.6225 O.2     1  UNL1       -0.4283
     15 C         143.2474  140.6121  161.6801 C.ar    1  UNL1        0.1964
     16 C         139.3593  144.1824  164.1779 C.3     1  UNL1        0.0730
     17 N         138.9216  142.7658  164.4053 N.3     1  UNL1       -0.2726
     18 C         138.0054  141.9733  163.5207 C.3     1  UNL1        0.0721
     19 C         137.8408  140.6108  164.1259 C.3     1  UNL1        0.0190
     20 C         138.6552  140.5611  165.3846 C.3     1  UNL1        0.0201
     21 C         138.3050  139.1471  165.7423 C.3     1  UNL1        0.0061
     22 C         139.2212  139.9396  166.6269 C.3     1  UNL1        0.0237
     23 C         139.3232  141.8930  165.5573 C.3     1  UNL1        0.0724
     24 C         140.0769  140.0384  167.8549 C.ar    1  UNL1       -0.0225
     25 C         141.5633  139.8660  167.7492 C.ar    1  UNL1       -0.0043
     26 C         142.4190  139.9648  168.9772 C.ar    1  UNL1       -0.0003
     27 C         141.7884  140.2358  170.3109 C.ar    1  UNL1       -0.0000
     28 C         140.3020  140.4082  170.4166 C.ar    1  UNL1       -0.0003
     29 C         139.4463  140.3094  169.1887 C.ar    1  UNL1       -0.0043
@<TRIPOS>BOND
     1    10    11    1
     2    11    12   ar
     3    12    13   ar
     4    13    14   ar
     5    14    15   ar
     6    15     4    1
     7     4     5   ar
     8     5     6   ar
     9     6     7   ar
    10     7     3    1
    11     3     2    1
    12     2     1    1
    13     1    16    1
    14    16    17    1
    15    17    18    1
    16    18    19    1
    17    20    19    1
    18    20    21    1
    19    21    22    1
    20    22    24    1
    21    24    25   ar
    22    25    26   ar
    23    26    27   ar
    24    27    28   ar
    25    28    29   ar
    26    20    23    1
    27     7     8   ar
    28     8     9    1
    29    15    11   ar
    30     8     4   ar
    31    23    17    1
    32    22    20    1
    33    29    24   ar
