@<TRIPOS>MOLECULE
*****
 35 38 0 0 0
SMALL
GASTEIGER

@<TRIPOS>ATOM
      1 N         143.3817  139.4014  162.9593 N.3     1  UNL1       -0.2680
      2 C         143.3250  139.2366  164.4492 C.3     1  UNL1        0.0897
      3 C         142.1181  138.6180  165.0900 C.3     1  UNL1        0.0897
      4 N         140.9678  138.1641  164.2408 N.3     1  UNL1       -0.2680
      5 C         141.0245  138.3289  162.7509 C.3     1  UNL1        0.0897
      6 C         142.2315  138.9475  162.1103 C.3     1  UNL1        0.0897
      7 C         144.5886  140.0200  162.3186 C.3     1  UNL1        0.1064
      8 C         144.8866  141.4751  162.5286 C.3     1  UNL1        0.1487
      9 O         146.2478  141.9027  162.9912 O.3     1  UNL1       -0.3786
     10 H         146.8107  141.1211  163.1059 H       1  UNL1        0.2108
     11 C         142.5111  144.0244  160.6292 C.ar    1  UNL1        0.1480
     12 C         143.5744  142.9970  160.8819 C.ar    1  UNL1        0.0357
     13 C         143.8232  142.5024  162.2760 C.ar    1  UNL1        0.0087
     14 C         143.0086  143.0351  163.4173 C.ar    1  UNL1       -0.0010
     15 C         141.9453  144.0624  163.1646 C.ar    1  UNL1        0.0131
     16 C         141.6965  144.5571  161.7705 C.ar    1  UNL1        0.1023
     17 C         141.3483  143.7579  158.3212 C.3     1  UNL1        0.2525
     18 O         142.2623  144.5191  159.2351 O.3     1  UNL1       -0.4708
     19 C         140.6331  145.5845  161.5179 C.1     1  UNL1        0.1035
     20 N         139.5698  146.6118  161.2654 N.1     1  UNL1       -0.1907
     21 C         139.7609  137.5455  164.8815 C.3     1  UNL1        0.1064
     22 C         138.6998  138.4192  165.4821 C.3     1  UNL1        0.1483
     23 O         137.8245  137.8898  166.5792 O.3     1  UNL1       -0.3786
     24 H         137.1969  138.5772  166.8522 H       1  UNL1        0.2108
     25 C         138.5139  139.8225  164.9855 C.ar    1  UNL1        0.0015
     26 C         137.7210  140.0777  163.7381 C.ar    1  UNL1       -0.0020
     27 C         137.5352  141.4809  163.2415 C.ar    1  UNL1        0.0060
     28 C         138.1423  142.6288  163.9924 C.ar    1  UNL1        0.0748
     29 C         138.9352  142.3735  165.2398 C.ar    1  UNL1        0.0233
     30 C         139.1211  140.9704  165.7364 C.ar    1  UNL1       -0.0238
     31 C         139.9141  140.7150  166.9838 C.3     1  UNL1        0.0306
     32 C         139.4116  143.6954  165.7649 C.3     1  UNL1        0.2352
     33 O         138.9131  144.7676  164.8420 O.3     1  UNL1       -0.4404
     34 C         138.1286  144.1084  163.7465 C.2     1  UNL1        0.3413
     35 O         137.4496  144.8064  162.6055 O.2     1  UNL1       -0.2449
@<TRIPOS>BOND
     1    17    18    1
     2    18    11    1
     3    11    12   ar
     4    12    13   ar
     5    13     8    1
     6     8     9    1
     7     8     7    1
     8     7     1    1
     9     1     2    1
    10     2     3    1
    11     3     4    1
    12     4    21    1
    13    21    22    1
    14    22    23    1
    15    22    25    1
    16    25    26   ar
    17    26    27   ar
    18    27    28   ar
    19    28    29   ar
    20    29    30   ar
    21    30    31    1
    22    29    32    1
    23    32    33    1
    24    33    34    1
    25    34    35    2
    26     4     5    1
    27     5     6    1
    28    13    14   ar
    29    14    15   ar
    30    15    16   ar
    31    16    19    1
    32    19    20    3
    33    16    11   ar
    34     6     1    1
    35    30    25   ar
    36    34    28    1
    37     9    10    1
    38    23    24    1
@<TRIPOS>MOLECULE
*****
 35 38 0 0 0
SMALL
GASTEIGER

@<TRIPOS>ATOM
      1 N         140.8467  140.4227  166.8426 N.3     1  UNL1       -0.2680
      2 C         141.8721  139.4430  166.3541 C.3     1  UNL1        0.0897
      3 C         143.1005  139.9332  165.6465 C.3     1  UNL1        0.0897
      4 N         143.3035  141.4033  165.4276 N.3     1  UNL1       -0.2680
      5 C         142.2781  142.3830  165.9162 C.3     1  UNL1        0.0897
      6 C         141.0497  141.8927  166.6237 C.3     1  UNL1        0.0897
      7 C         139.6182  139.9325  167.5502 C.3     1  UNL1        0.1064
      8 C         138.5771  139.1588  166.7967 C.3     1  UNL1        0.1487
      9 O         137.6262  138.2647  167.5358 O.3     1  UNL1       -0.3786
     10 H         137.8194  138.3019  168.4857 H       1  UNL1        0.2108
     11 C         137.8172  140.6372  163.1931 C.ar    1  UNL1        0.1480
     12 C         137.9074  140.5167  164.6855 C.ar    1  UNL1        0.0357
     13 C         138.4870  139.2793  165.3043 C.ar    1  UNL1        0.0087
     14 C         138.9765  138.1625  164.4308 C.ar    1  UNL1       -0.0010
     15 C         138.8863  138.2831  162.9383 C.ar    1  UNL1        0.0131
     16 C         138.3067  139.5204  162.3195 C.ar    1  UNL1        0.1023
     17 C         137.5902  143.2245  163.1251 C.3     1  UNL1        0.2525
     18 O         137.2376  141.8746  162.5742 O.3     1  UNL1       -0.4708
     19 C         138.2166  139.6409  160.8270 C.1     1  UNL1        0.1035
     20 N         138.1264  139.7613  159.3346 N.1     1  UNL1       -0.1907
     21 C         144.5319  141.8935  164.7201 C.3     1  UNL1        0.1064
     22 C         144.5328  142.0301  163.2263 C.3     1  UNL1        0.1483
     23 O         145.8010  141.8161  162.4544 O.3     1  UNL1       -0.3786
     24 H         145.6286  141.9414  161.5081 H       1  UNL1        0.2108
     25 C         143.2654  142.3807  162.5044 C.ar    1  UNL1        0.0015
     26 C         142.4517  141.3033  161.8513 C.ar    1  UNL1       -0.0020
     27 C         141.1844  141.6539  161.1294 C.ar    1  UNL1        0.0060
     28 C         140.7309  143.0820  161.0608 C.ar    1  UNL1        0.0748
     29 C         141.5447  144.1596  161.7140 C.ar    1  UNL1        0.0233
     30 C         142.8120  143.8090  162.4359 C.ar    1  UNL1       -0.0238
     31 C         143.6258  144.8865  163.0891 C.3     1  UNL1        0.0306
     32 C         140.8513  145.4693  161.4819 C.3     1  UNL1        0.2352
     33 O         139.6090  145.2012  160.6852 O.3     1  UNL1       -0.4404
     34 C         139.5346  143.7258  160.4249 C.2     1  UNL1        0.3413
     35 O         138.4536  143.0184  159.6627 O.2     1  UNL1       -0.2449
@<TRIPOS>BOND
     1    17    18    1
     2    18    11    1
     3    11    12   ar
     4    12    13   ar
     5    13     8    1
     6     8     9    1
     7     8     7    1
     8     7     1    1
     9     1     2    1
    10     2     3    1
    11     3     4    1
    12     4    21    1
    13    21    22    1
    14    22    23    1
    15    22    25    1
    16    25    26   ar
    17    26    27   ar
    18    27    28   ar
    19    28    29   ar
    20    29    30   ar
    21    30    31    1
    22    29    32    1
    23    32    33    1
    24    33    34    1
    25    34    35    2
    26     4     5    1
    27     5     6    1
    28    13    14   ar
    29    14    15   ar
    30    15    16   ar
    31    16    19    1
    32    19    20    3
    33    16    11   ar
    34     6     1    1
    35    30    25   ar
    36    34    28    1
    37     9    10    1
    38    23    24    1
@<TRIPOS>MOLECULE
*****
 35 38 0 0 0
SMALL
GASTEIGER

@<TRIPOS>ATOM
      1 N         143.6723  139.2600  161.9487 N.3     1  UNL1       -0.2680
      2 C         143.9898  140.5623  161.2754 C.3     1  UNL1        0.0897
      3 C         144.6429  141.6678  162.0508 C.3     1  UNL1        0.0897
      4 N         144.9786  141.4709  163.4995 N.3     1  UNL1       -0.2680
      5 C         144.6611  140.1687  164.1728 C.3     1  UNL1        0.0897
      6 C         144.0080  139.0632  163.3973 C.3     1  UNL1        0.0897
      7 C         143.0192  138.1545  161.1733 C.3     1  UNL1        0.1064
      8 C         141.5238  138.0905  161.0729 C.3     1  UNL1        0.1487
      9 O         140.8662  137.9858  159.7289 O.3     1  UNL1       -0.3786
     10 H         141.5456  137.9714  159.0367 H       1  UNL1        0.2108
     11 C         138.7539  139.1888  163.6941 C.ar    1  UNL1        0.1480
     12 C         139.5915  139.1479  162.4505 C.ar    1  UNL1        0.0357
     13 C         140.6863  138.1313  162.3166 C.ar    1  UNL1        0.0087
     14 C         140.9435  137.1555  163.4264 C.ar    1  UNL1       -0.0010
     15 C         140.1059  137.1963  164.6701 C.ar    1  UNL1        0.0131
     16 C         139.0111  138.2130  164.8039 C.ar    1  UNL1        0.1023
     17 C         137.3417  141.1210  162.6831 C.3     1  UNL1        0.2525
     18 O         137.6591  140.2054  163.8281 O.3     1  UNL1       -0.4708
     19 C         138.1735  138.2537  166.0477 C.1     1  UNL1        0.1035
     20 N         137.3359  138.2944  167.2914 N.1     1  UNL1       -0.1907
     21 C         145.6317  142.5764  164.2749 C.3     1  UNL1        0.1064
     22 C         144.7902  143.5558  165.0382 C.3     1  UNL1        0.1483
     23 O         145.3570  144.2572  166.2369 O.3     1  UNL1       -0.3786
     24 H         144.6872  144.8510  166.6107 H       1  UNL1        0.2108
     25 C         143.3819  143.8338  164.6029 C.ar    1  UNL1        0.0015
     26 C         143.1206  144.7764  163.4658 C.ar    1  UNL1       -0.0020
     27 C         141.7123  145.0543  163.0305 C.ar    1  UNL1        0.0060
     28 C         140.5653  144.3896  163.7323 C.ar    1  UNL1        0.0748
     29 C         140.8266  143.4469  164.8695 C.ar    1  UNL1        0.0233
     30 C         142.2349  143.1690  165.3048 C.ar    1  UNL1       -0.0238
     31 C         142.4963  142.2263  166.4420 C.3     1  UNL1        0.0306
     32 C         139.5043  142.9432  165.3673 C.3     1  UNL1        0.2352
     33 O         138.4258  143.5746  164.5378 O.3     1  UNL1       -0.4404
     34 C         139.0815  144.4685  163.5273 C.2     1  UNL1        0.3413
     35 O         138.3771  145.2960  162.4934 O.2     1  UNL1       -0.2449
@<TRIPOS>BOND
     1    17    18    1
     2    18    11    1
     3    11    12   ar
     4    12    13   ar
     5    13     8    1
     6     8     9    1
     7     8     7    1
     8     7     1    1
     9     1     2    1
    10     2     3    1
    11     3     4    1
    12     4    21    1
    13    21    22    1
    14    22    23    1
    15    22    25    1
    16    25    26   ar
    17    26    27   ar
    18    27    28   ar
    19    28    29   ar
    20    29    30   ar
    21    30    31    1
    22    29    32    1
    23    32    33    1
    24    33    34    1
    25    34    35    2
    26     4     5    1
    27     5     6    1
    28    13    14   ar
    29    14    15   ar
    30    15    16   ar
    31    16    19    1
    32    19    20    3
    33    16    11   ar
    34     6     1    1
    35    30    25   ar
    36    34    28    1
    37     9    10    1
    38    23    24    1
@<TRIPOS>MOLECULE
*****
 35 38 0 0 0
SMALL
GASTEIGER

@<TRIPOS>ATOM
      1 N         140.1590  139.4013  160.6999 N.3     1  UNL1       -0.2680
      2 C         141.2062  140.4578  160.5071 C.3     1  UNL1        0.0897
      3 C         142.5245  140.3449  161.2137 C.3     1  UNL1        0.0897
      4 N         142.7956  139.1754  162.1130 N.3     1  UNL1       -0.2680
      5 C         141.7485  138.1188  162.3058 C.3     1  UNL1        0.0897
      6 C         140.4302  138.2318  161.5992 C.3     1  UNL1        0.0897
      7 C         138.8407  139.5142  159.9933 C.3     1  UNL1        0.1064
      8 C         137.6392  140.0339  160.7257 C.3     1  UNL1        0.1487
      9 O         136.2759  139.4953  160.4073 O.3     1  UNL1       -0.3786
     10 H         136.3480  138.8238  159.7110 H       1  UNL1        0.2108
     11 C         138.2044  143.5752  162.4254 C.ar    1  UNL1        0.1480
     12 C         138.0425  142.5170  161.3747 C.ar    1  UNL1        0.0357
     13 C         137.8011  141.0920  161.7764 C.ar    1  UNL1        0.0087
     14 C         137.7215  140.7254  163.2287 C.ar    1  UNL1       -0.0010
     15 C         137.8833  141.7836  164.2793 C.ar    1  UNL1        0.0131
     16 C         138.1248  143.2086  163.8777 C.ar    1  UNL1        0.1023
     17 C         139.8480  145.5000  161.8392 C.3     1  UNL1        0.2525
     18 O         138.4458  145.0002  162.0238 O.3     1  UNL1       -0.4708
     19 C         138.2866  144.2668  164.9285 C.1     1  UNL1        0.1035
     20 N         138.4484  145.3249  165.9792 N.1     1  UNL1       -0.1907
     21 C         144.1139  139.0625  162.8196 C.3     1  UNL1        0.1064
     22 C         144.4374  139.9866  163.9559 C.3     1  UNL1        0.1483
     23 O         145.6341  140.8872  163.8729 O.3     1  UNL1       -0.3786
     24 H         145.6985  141.4149  164.6843 H       1  UNL1        0.2108
     25 C         143.5641  140.0103  165.1754 C.ar    1  UNL1        0.0015
     26 C         143.6901  138.9308  166.2091 C.ar    1  UNL1       -0.0020
     27 C         142.8168  138.9544  167.4285 C.ar    1  UNL1        0.0060
     28 C         141.8175  140.0576  167.6140 C.ar    1  UNL1        0.0748
     29 C         141.6915  141.1371  166.5802 C.ar    1  UNL1        0.0233
     30 C         142.5647  141.1135  165.3609 C.ar    1  UNL1       -0.0238
     31 C         142.4388  142.1930  164.3270 C.3     1  UNL1        0.0306
     32 C         140.6243  142.0895  167.0321 C.3     1  UNL1        0.2352
     33 O         140.0908  141.5985  168.3453 O.3     1  UNL1       -0.4404
     34 C         140.8282  140.3427  168.7049 C.2     1  UNL1        0.3413
     35 O         140.6140  139.5171  169.9388 O.2     1  UNL1       -0.2449
@<TRIPOS>BOND
     1    17    18    1
     2    18    11    1
     3    11    12   ar
     4    12    13   ar
     5    13     8    1
     6     8     9    1
     7     8     7    1
     8     7     1    1
     9     1     2    1
    10     2     3    1
    11     3     4    1
    12     4    21    1
    13    21    22    1
    14    22    23    1
    15    22    25    1
    16    25    26   ar
    17    26    27   ar
    18    27    28   ar
    19    28    29   ar
    20    29    30   ar
    21    30    31    1
    22    29    32    1
    23    32    33    1
    24    33    34    1
    25    34    35    2
    26     4     5    1
    27     5     6    1
    28    13    14   ar
    29    14    15   ar
    30    15    16   ar
    31    16    19    1
    32    19    20    3
    33    16    11   ar
    34     6     1    1
    35    30    25   ar
    36    34    28    1
    37     9    10    1
    38    23    24    1
@<TRIPOS>MOLECULE
*****
 35 38 0 0 0
SMALL
GASTEIGER

@<TRIPOS>ATOM
      1 N         142.4462  138.7659  163.8800 N.3     1  UNL1       -0.2680
      2 C         141.2261  138.0933  164.4359 C.3     1  UNL1        0.0897
      3 C         139.9944  137.9567  163.5909 C.3     1  UNL1        0.0897
      4 N         139.9828  138.4928  162.1899 N.3     1  UNL1       -0.2680
      5 C         141.2029  139.1653  161.6340 C.3     1  UNL1        0.0897
      6 C         142.4346  139.3018  162.4791 C.3     1  UNL1        0.0897
      7 C         143.6780  138.9024  164.7250 C.3     1  UNL1        0.1064
      8 C         143.5760  138.8166  166.2191 C.3     1  UNL1        0.1487
      9 O         144.1469  137.6334  166.9430 O.3     1  UNL1       -0.3786
     10 H         144.5427  137.0223  166.3021 H       1  UNL1        0.2108
     11 C         141.7973  140.7766  169.1762 C.ar    1  UNL1        0.1480
     12 C         142.4702  139.6793  168.4060 C.ar    1  UNL1        0.0357
     13 C         142.9032  139.9140  166.9892 C.ar    1  UNL1        0.0087
     14 C         142.6633  141.2459  166.3425 C.ar    1  UNL1       -0.0010
     15 C         141.9904  142.3433  167.1126 C.ar    1  UNL1        0.0131
     16 C         141.5575  142.1086  168.5295 C.ar    1  UNL1        0.1023
     17 C         140.0254  139.9278  170.8761 C.3     1  UNL1        0.2525
     18 O         141.3643  140.5420  170.5931 O.3     1  UNL1       -0.4708
     19 C         140.8846  143.2060  169.2996 C.1     1  UNL1        0.1035
     20 N         140.2116  144.3034  170.0696 N.1     1  UNL1       -0.1907
     21 C         138.7510  138.3562  161.3449 C.3     1  UNL1        0.1064
     22 C         137.7535  139.4750  161.2869 C.3     1  UNL1        0.1483
     23 O         136.5190  139.3362  160.4462 O.3     1  UNL1       -0.3786
     24 H         135.9852  140.1428  160.5200 H       1  UNL1        0.2108
     25 C         137.9905  140.7325  162.0696 C.ar    1  UNL1        0.0015
     26 C         137.5864  140.8054  163.5122 C.ar    1  UNL1       -0.0020
     27 C         137.8234  142.0629  164.2948 C.ar    1  UNL1        0.0060
     28 C         138.4645  143.2475  163.6347 C.ar    1  UNL1        0.0748
     29 C         138.8687  143.1746  162.1920 C.ar    1  UNL1        0.0233
     30 C         138.6317  141.9171  161.4094 C.ar    1  UNL1       -0.0238
     31 C         139.0357  141.8442  159.9667 C.3     1  UNL1        0.0306
     32 C         139.4757  144.4930  161.8135 C.3     1  UNL1        0.2352
     33 O         139.4468  145.3807  163.0222 O.3     1  UNL1       -0.4404
     34 C         138.8218  144.6110  164.1479 C.2     1  UNL1        0.3413
     35 O         138.5942  145.1161  165.5418 O.2     1  UNL1       -0.2449
@<TRIPOS>BOND
     1    17    18    1
     2    18    11    1
     3    11    12   ar
     4    12    13   ar
     5    13     8    1
     6     8     9    1
     7     8     7    1
     8     7     1    1
     9     1     2    1
    10     2     3    1
    11     3     4    1
    12     4    21    1
    13    21    22    1
    14    22    23    1
    15    22    25    1
    16    25    26   ar
    17    26    27   ar
    18    27    28   ar
    19    28    29   ar
    20    29    30   ar
    21    30    31    1
    22    29    32    1
    23    32    33    1
    24    33    34    1
    25    34    35    2
    26     4     5    1
    27     5     6    1
    28    13    14   ar
    29    14    15   ar
    30    15    16   ar
    31    16    19    1
    32    19    20    3
    33    16    11   ar
    34     6     1    1
    35    30    25   ar
    36    34    28    1
    37     9    10    1
    38    23    24    1
@<TRIPOS>MOLECULE
*****
 35 38 0 0 0
SMALL
GASTEIGER

@<TRIPOS>ATOM
      1 N         140.4803  140.4725  160.3275 N.3     1  UNL1       -0.2680
      2 C         140.9463  141.8514  159.9652 C.3     1  UNL1        0.0897
      3 C         142.3428  142.2837  160.3016 C.3     1  UNL1        0.0897
      4 N         143.2731  141.3369  161.0003 N.3     1  UNL1       -0.2680
      5 C         142.8071  139.9580  161.3625 C.3     1  UNL1        0.0897
      6 C         141.4107  139.5258  161.0261 C.3     1  UNL1        0.0897
      7 C         139.0839  140.0402  159.9911 C.3     1  UNL1        0.1064
      8 C         138.0017  140.1277  161.0261 C.3     1  UNL1        0.1487
      9 O         136.8702  139.1431  161.0132 O.3     1  UNL1       -0.3786
     10 H         136.9899  138.5227  160.2772 H       1  UNL1        0.2108
     11 C         138.1205  143.7161  162.7169 C.ar    1  UNL1        0.1480
     12 C         138.0711  142.6440  161.6691 C.ar    1  UNL1        0.0357
     13 C         138.0512  141.1998  162.0740 C.ar    1  UNL1        0.0087
     14 C         138.0806  140.8278  163.5269 C.ar    1  UNL1       -0.0010
     15 C         138.1300  141.9000  164.5747 C.ar    1  UNL1        0.0131
     16 C         138.1500  143.3441  164.1697 C.ar    1  UNL1        0.1023
     17 C         139.4473  145.8461  162.0441 C.3     1  UNL1        0.2525
     18 O         138.1404  145.1604  162.3120 O.3     1  UNL1       -0.4708
     19 C         138.1994  144.4163  165.2177 C.1     1  UNL1        0.1035
     20 N         138.2487  145.4884  166.2656 N.1     1  UNL1       -0.1907
     21 C         144.6695  141.7692  161.3366 C.3     1  UNL1        0.1064
     22 C         145.1140  141.8216  162.7683 C.3     1  UNL1        0.1483
     23 O         146.5765  141.7967  163.1009 O.3     1  UNL1       -0.3786
     24 H         146.6899  141.8370  164.0634 H       1  UNL1        0.2108
     25 C         144.0961  141.8990  163.8674 C.ar    1  UNL1        0.0015
     26 C         143.2873  143.1483  164.0540 C.ar    1  UNL1       -0.0020
     27 C         142.2694  143.2257  165.1530 C.ar    1  UNL1        0.0060
     28 C         142.0603  142.0537  166.0654 C.ar    1  UNL1        0.0748
     29 C         142.8691  140.8042  165.8788 C.ar    1  UNL1        0.0233
     30 C         143.8870  140.7268  164.7798 C.ar    1  UNL1       -0.0238
     31 C         144.6958  139.4774  164.5932 C.3     1  UNL1        0.0306
     32 C         142.4453  139.8170  166.9256 C.3     1  UNL1        0.2352
     33 O         141.3745  140.4563  167.7592 O.3     1  UNL1       -0.4404
     34 C         141.1366  141.8386  167.2275 C.2     1  UNL1        0.3413
     35 O         140.1484  142.8316  167.7639 O.2     1  UNL1       -0.2449
@<TRIPOS>BOND
     1    17    18    1
     2    18    11    1
     3    11    12   ar
     4    12    13   ar
     5    13     8    1
     6     8     9    1
     7     8     7    1
     8     7     1    1
     9     1     2    1
    10     2     3    1
    11     3     4    1
    12     4    21    1
    13    21    22    1
    14    22    23    1
    15    22    25    1
    16    25    26   ar
    17    26    27   ar
    18    27    28   ar
    19    28    29   ar
    20    29    30   ar
    21    30    31    1
    22    29    32    1
    23    32    33    1
    24    33    34    1
    25    34    35    2
    26     4     5    1
    27     5     6    1
    28    13    14   ar
    29    14    15   ar
    30    15    16   ar
    31    16    19    1
    32    19    20    3
    33    16    11   ar
    34     6     1    1
    35    30    25   ar
    36    34    28    1
    37     9    10    1
    38    23    24    1
@<TRIPOS>MOLECULE
*****
 35 38 0 0 0
SMALL
GASTEIGER

@<TRIPOS>ATOM
      1 N         139.0303  142.6606  161.4318 N.3     1  UNL1       -0.2680
      2 C         139.6020  141.2745  161.3881 C.3     1  UNL1        0.0897
      3 C         139.3522  140.3241  162.5213 C.3     1  UNL1        0.0897
      4 N         138.5307  140.7598  163.6983 N.3     1  UNL1       -0.2680
      5 C         137.9589  142.1459  163.7421 C.3     1  UNL1        0.0897
      6 C         138.2088  143.0962  162.6088 C.3     1  UNL1        0.0897
      7 C         139.2800  143.6110  160.2986 C.3     1  UNL1        0.1064
      8 C         140.4993  144.4848  160.3073 C.3     1  UNL1        0.1487
      9 O         140.7609  145.4185  159.1629 O.3     1  UNL1       -0.3786
     10 H         140.0511  145.3333  158.5073 H       1  UNL1        0.2108
     11 C         143.6549  143.5271  162.5151 C.ar    1  UNL1        0.1480
     12 C         142.6973  143.5872  161.3621 C.ar    1  UNL1        0.0357
     13 C         141.4568  144.4248  161.4603 C.ar    1  UNL1        0.0087
     14 C         141.1738  145.2022  162.7115 C.ar    1  UNL1       -0.0010
     15 C         142.1314  145.1422  163.8645 C.ar    1  UNL1        0.0131
     16 C         143.3719  144.3046  163.7663 C.ar    1  UNL1        0.1023
     17 C         144.8566  141.2428  162.8108 C.3     1  UNL1        0.2525
     18 O         144.8955  142.6896  162.4170 O.3     1  UNL1       -0.4708
     19 C         144.3295  144.2446  164.9194 C.1     1  UNL1        0.1035
     20 N         145.2869  144.1846  166.0725 N.1     1  UNL1       -0.1907
     21 C         138.2809  139.8094  164.8316 C.3     1  UNL1        0.1064
     22 C         139.4287  139.3086  165.6573 C.3     1  UNL1        0.1483
     23 O         140.2433  138.1428  165.1805 O.3     1  UNL1       -0.3786
     24 H         140.9402  137.9494  165.8269 H       1  UNL1        0.2108
     25 C         139.7620  139.9738  166.9599 C.ar    1  UNL1        0.0015
     26 C         138.9112  139.7229  168.1694 C.ar    1  UNL1       -0.0020
     27 C         139.2444  140.3880  169.4719 C.ar    1  UNL1        0.0060
     28 C         140.4285  141.3041  169.5648 C.ar    1  UNL1        0.0748
     29 C         141.2794  141.5551  168.3553 C.ar    1  UNL1        0.0233
     30 C         140.9462  140.8900  167.0528 C.ar    1  UNL1       -0.0238
     31 C         141.7970  141.1409  165.8431 C.3     1  UNL1        0.0306
     32 C         142.3755  142.5009  168.7477 C.3     1  UNL1        0.2352
     33 O         142.2021  142.8344  170.1998 O.3     1  UNL1       -0.4404
     34 C         140.9988  142.0948  170.7048 C.2     1  UNL1        0.3413
     35 O         140.4603  142.1383  172.1042 O.2     1  UNL1       -0.2449
@<TRIPOS>BOND
     1    17    18    1
     2    18    11    1
     3    11    12   ar
     4    12    13   ar
     5    13     8    1
     6     8     9    1
     7     8     7    1
     8     7     1    1
     9     1     2    1
    10     2     3    1
    11     3     4    1
    12     4    21    1
    13    21    22    1
    14    22    23    1
    15    22    25    1
    16    25    26   ar
    17    26    27   ar
    18    27    28   ar
    19    28    29   ar
    20    29    30   ar
    21    30    31    1
    22    29    32    1
    23    32    33    1
    24    33    34    1
    25    34    35    2
    26     4     5    1
    27     5     6    1
    28    13    14   ar
    29    14    15   ar
    30    15    16   ar
    31    16    19    1
    32    19    20    3
    33    16    11   ar
    34     6     1    1
    35    30    25   ar
    36    34    28    1
    37     9    10    1
    38    23    24    1
@<TRIPOS>MOLECULE
*****
 35 38 0 0 0
SMALL
GASTEIGER

@<TRIPOS>ATOM
      1 N         142.3033  140.3908  166.9666 N.3     1  UNL1       -0.2680
      2 C         142.5544  141.8662  166.8666 C.3     1  UNL1        0.0897
      3 C         143.5197  142.3954  165.8478 C.3     1  UNL1        0.0897
      4 N         144.2340  141.4490  164.9290 N.3     1  UNL1       -0.2680
      5 C         143.9830  139.9736  165.0289 C.3     1  UNL1        0.0897
      6 C         143.0176  139.4445  166.0478 C.3     1  UNL1        0.0897
      7 C         141.3379  139.8616  167.9854 C.3     1  UNL1        0.1064
      8 C         139.8724  139.8036  167.6710 C.3     1  UNL1        0.1487
      9 O         138.8670  139.7796  168.7839 O.3     1  UNL1       -0.3786
     10 H         139.3281  139.8067  169.6369 H       1  UNL1        0.2108
     11 C         139.3370  138.5873  163.9316 C.ar    1  UNL1        0.1480
     12 C         139.7971  138.6213  165.3589 C.ar    1  UNL1        0.0357
     13 C         139.4123  139.7697  166.2438 C.ar    1  UNL1        0.0087
     14 C         138.5675  140.8842  165.7013 C.ar    1  UNL1       -0.0010
     15 C         138.1074  140.8502  164.2740 C.ar    1  UNL1        0.0131
     16 C         138.4922  139.7018  163.3892 C.ar    1  UNL1        0.1023
     17 C         141.0023  137.4890  162.2671 C.3     1  UNL1        0.2525
     18 O         139.7217  137.4388  163.0466 O.3     1  UNL1       -0.4708
     19 C         138.0321  139.6679  161.9618 C.1     1  UNL1        0.1035
     20 N         137.5721  139.6340  160.5345 N.1     1  UNL1       -0.1907
     21 C         145.1994  141.9782  163.9101 C.3     1  UNL1        0.1064
     22 C         144.7061  142.4009  162.5581 C.3     1  UNL1        0.1483
     23 O         145.6724  142.5522  161.4208 O.3     1  UNL1       -0.3786
     24 H         145.1932  142.8292  160.6241 H       1  UNL1        0.2108
     25 C         143.2465  142.6724  162.3434 C.ar    1  UNL1        0.0015
     26 C         142.3486  141.5849  161.8329 C.ar    1  UNL1       -0.0020
     27 C         140.8891  141.8563  161.6182 C.ar    1  UNL1        0.0060
     28 C         140.3275  143.2154  161.9141 C.ar    1  UNL1        0.0748
     29 C         141.2255  144.3030  162.4246 C.ar    1  UNL1        0.0233
     30 C         142.6850  144.0316  162.6393 C.ar    1  UNL1       -0.0238
     31 C         143.5831  145.1192  163.1499 C.3     1  UNL1        0.0306
     32 C         140.3933  145.5345  162.6270 C.3     1  UNL1        0.2352
     33 O         138.9810  145.2079  162.2415 O.3     1  UNL1       -0.4404
     34 C         138.9403  143.7747  161.8009 C.2     1  UNL1        0.3413
     35 O         137.7256  143.0312  161.3298 O.2     1  UNL1       -0.2449
@<TRIPOS>BOND
     1    17    18    1
     2    18    11    1
     3    11    12   ar
     4    12    13   ar
     5    13     8    1
     6     8     9    1
     7     8     7    1
     8     7     1    1
     9     1     2    1
    10     2     3    1
    11     3     4    1
    12     4    21    1
    13    21    22    1
    14    22    23    1
    15    22    25    1
    16    25    26   ar
    17    26    27   ar
    18    27    28   ar
    19    28    29   ar
    20    29    30   ar
    21    30    31    1
    22    29    32    1
    23    32    33    1
    24    33    34    1
    25    34    35    2
    26     4     5    1
    27     5     6    1
    28    13    14   ar
    29    14    15   ar
    30    15    16   ar
    31    16    19    1
    32    19    20    3
    33    16    11   ar
    34     6     1    1
    35    30    25   ar
    36    34    28    1
    37     9    10    1
    38    23    24    1
@<TRIPOS>MOLECULE
*****
 35 38 0 0 0
SMALL
GASTEIGER

@<TRIPOS>ATOM
      1 N         142.3999  137.9837  162.2926 N.3     1  UNL1       -0.2680
      2 C         142.5884  138.0103  163.7805 C.3     1  UNL1        0.0897
      3 C         141.3991  137.9103  164.6891 C.3     1  UNL1        0.0897
      4 N         140.0212  137.7835  164.1097 N.3     1  UNL1       -0.2680
      5 C         139.8328  137.7569  162.6218 C.3     1  UNL1        0.0897
      6 C         141.0221  137.8569  161.7133 C.3     1  UNL1        0.0897
      7 C         143.5892  138.0837  161.3841 C.3     1  UNL1        0.1064
      8 C         143.8894  139.3743  160.6808 C.3     1  UNL1        0.1487
      9 O         144.1712  139.3776  159.2075 O.3     1  UNL1       -0.3786
     10 H         144.1198  138.4710  158.8665 H       1  UNL1        0.2108
     11 C         143.1647  143.1370  161.7134 C.ar    1  UNL1        0.1480
     12 C         143.1463  141.8499  160.9434 C.ar    1  UNL1        0.0357
     13 C         143.9079  140.6613  161.4509 C.ar    1  UNL1        0.0087
     14 C         144.6877  140.7600  162.7284 C.ar    1  UNL1       -0.0010
     15 C         144.7061  142.0471  163.4984 C.ar    1  UNL1        0.0131
     16 C         143.9446  143.2356  162.9909 C.ar    1  UNL1        0.1023
     17 C         141.5876  144.2141  159.9520 C.3     1  UNL1        0.2525
     18 O         142.4032  144.3256  161.2059 O.3     1  UNL1       -0.4708
     19 C         143.9631  144.5228  163.7610 C.1     1  UNL1        0.1035
     20 N         143.9816  145.8099  164.5310 N.1     1  UNL1       -0.1907
     21 C         138.8320  137.6835  165.0183 C.3     1  UNL1        0.1064
     22 C         138.2367  138.9248  165.6140 C.3     1  UNL1        0.1483
     23 O         137.4212  138.8373  166.8699 O.3     1  UNL1       -0.3786
     24 H         137.1134  139.7231  167.1179 H       1  UNL1        0.2108
     25 C         138.4569  140.2536  164.9537 C.ar    1  UNL1        0.0015
     26 C         137.6486  140.6358  163.7494 C.ar    1  UNL1       -0.0020
     27 C         137.8687  141.9645  163.0891 C.ar    1  UNL1        0.0060
     28 C         138.8973  142.9111  163.6332 C.ar    1  UNL1        0.0748
     29 C         139.7057  142.5289  164.8376 C.ar    1  UNL1        0.0233
     30 C         139.4855  141.2001  165.4978 C.ar    1  UNL1       -0.0238
     31 C         140.2939  140.8179  166.7022 C.3     1  UNL1        0.0306
     32 C         140.6412  143.6601  165.1460 C.3     1  UNL1        0.2352
     33 O         140.4110  144.7414  164.1322 O.3     1  UNL1       -0.4404
     34 C         139.3332  144.2785  163.1973 C.2     1  UNL1        0.3413
     35 O         138.7872  145.0480  162.0312 O.2     1  UNL1       -0.2449
@<TRIPOS>BOND
     1    17    18    1
     2    18    11    1
     3    11    12   ar
     4    12    13   ar
     5    13     8    1
     6     8     9    1
     7     8     7    1
     8     7     1    1
     9     1     2    1
    10     2     3    1
    11     3     4    1
    12     4    21    1
    13    21    22    1
    14    22    23    1
    15    22    25    1
    16    25    26   ar
    17    26    27   ar
    18    27    28   ar
    19    28    29   ar
    20    29    30   ar
    21    30    31    1
    22    29    32    1
    23    32    33    1
    24    33    34    1
    25    34    35    2
    26     4     5    1
    27     5     6    1
    28    13    14   ar
    29    14    15   ar
    30    15    16   ar
    31    16    19    1
    32    19    20    3
    33    16    11   ar
    34     6     1    1
    35    30    25   ar
    36    34    28    1
    37     9    10    1
    38    23    24    1
