@<TRIPOS>MOLECULE
*****
 29 31 0 0 0
SMALL
GASTEIGER

@<TRIPOS>ATOM
      1 C         137.4506  139.7950  160.7766 C.3     1  UNL1        0.0616
      2 C         138.9464  140.6192  164.9399 C.ar    1  UNL1       -0.0000
      3 C         139.3665  139.3688  164.2258 C.ar    1  UNL1       -0.0003
      4 C         138.8678  139.0940  162.8381 C.ar    1  UNL1       -0.0042
      5 C         137.9492  140.0698  162.1643 C.ar    1  UNL1       -0.0194
      6 C         137.5292  141.3202  162.8784 C.ar    1  UNL1       -0.0042
      7 C         138.0278  141.5950  164.2661 C.ar    1  UNL1       -0.0003
      8 C         140.4423  141.4434  169.1032 C.ar    1  UNL1        0.0684
      9 C         139.7810  140.1342  168.7893 C.ar    1  UNL1        0.0103
     10 C         139.2824  139.8595  167.4015 C.ar    1  UNL1        0.0007
     11 C         139.4451  140.8939  166.3276 C.ar    1  UNL1        0.0000
     12 C         140.1064  142.2032  166.6415 C.ar    1  UNL1        0.0007
     13 C         140.6050  142.4779  168.0292 C.ar    1  UNL1        0.0103
     14 N         141.4396  141.9929  171.8787 N.1     1  UNL1       -0.1908
     15 C         140.9410  141.7181  170.4909 C.1     1  UNL1        0.1004
     16 C         138.1750  140.3643  159.5929 C.3     1  UNL1        0.1684
     17 N         138.5580  139.4734  158.4484 N.am    1  UNL1       -0.2925
     18 C         139.8337  138.6864  158.5048 C.2     1  UNL1        0.2374
     19 O         140.7265  138.7903  159.7057 O.2     1  UNL1       -0.2736
     20 H         137.9720  139.4052  157.6602 H       1  UNL1        0.1504
     21 C         140.2166  137.7956  157.3603 C.3     1  UNL1        0.1315
     22 C         141.6399  137.3497  157.2006 C.3     1  UNL1        0.0251
     23 C         142.0229  136.4589  156.0562 C.3     1  UNL1        0.0033
     24 C         140.9826  136.0140  155.0715 C.3     1  UNL1        0.0171
     25 C         139.5593  136.4598  155.2312 C.3     1  UNL1        0.0689
     26 N         139.1763  137.3506  156.3756 N.3     1  UNL1       -0.2913
     27 H         138.4603  136.8556  156.9072 H       1  UNL1        0.1236
     28 C         138.5166  141.8243  159.5537 C.1     1  UNL1        0.0927
     29 N         138.8582  143.2844  159.5144 N.1     1  UNL1       -0.1942
@<TRIPOS>BOND
     1    14    15    3
     2    15     8    1
     3     8     9   ar
     4     9    10   ar
     5    10    11   ar
     6    11     2    1
     7     2     3   ar
     8     3     4   ar
     9     4     5   ar
    10     5     1    1
    11    16     1    1
    12    16    28    1
    13    28    29    3
    14    16    17    1
    15    17    18   am
    16    18    19    2
    17    21    18    1
    18    21    22    1
    19    22    23    1
    20    23    24    1
    21    24    25    1
    22    25    26    1
    23     5     6   ar
    24     6     7   ar
    25    11    12   ar
    26    12    13   ar
    27    13     8   ar
    28     7     2   ar
    29    26    21    1
    30    17    20    1
    31    26    27    1
@<TRIPOS>MOLECULE
*****
 29 31 0 0 0
SMALL
GASTEIGER

@<TRIPOS>ATOM
      1 C         138.3541  138.4204  161.0342 C.3     1  UNL1        0.0616
      2 C         139.1908  139.8629  165.2138 C.ar    1  UNL1       -0.0000
      3 C         139.7446  138.5486  164.7491 C.ar    1  UNL1       -0.0003
      4 C         139.4656  138.0678  163.3559 C.ar    1  UNL1       -0.0042
      5 C         138.6330  138.9012  162.4274 C.ar    1  UNL1       -0.0194
      6 C         138.0792  140.2154  162.8922 C.ar    1  UNL1       -0.0042
      7 C         138.3581  140.6963  164.2854 C.ar    1  UNL1       -0.0003
      8 C         140.0275  141.3053  169.3934 C.ar    1  UNL1        0.0684
      9 C         140.5773  142.0559  168.2168 C.ar    1  UNL1        0.0103
     10 C         140.2984  141.5750  166.8236 C.ar    1  UNL1        0.0007
     11 C         139.4697  140.3437  166.6070 C.ar    1  UNL1        0.0000
     12 C         138.9199  139.5932  167.7836 C.ar    1  UNL1        0.0007
     13 C         139.1988  140.0740  169.1768 C.ar    1  UNL1        0.0103
     14 N         140.5854  142.2670  172.1798 N.1     1  UNL1       -0.1908
     15 C         140.3064  141.7862  170.7866 C.1     1  UNL1        0.1004
     16 C         139.1508  138.9568  159.8821 C.3     1  UNL1        0.1684
     17 N         138.4491  139.4766  158.6624 N.am    1  UNL1       -0.2925
     18 C         138.0439  140.9188  158.5877 C.2     1  UNL1        0.2374
     19 O         138.3403  141.8414  159.7327 O.2     1  UNL1       -0.2736
     20 H         138.2545  138.8711  157.9109 H       1  UNL1        0.1504
     21 C         137.3422  141.4386  157.3680 C.3     1  UNL1        0.1315
     22 C         137.6219  142.8280  156.8768 C.3     1  UNL1        0.0251
     23 C         136.9203  143.3477  155.6572 C.3     1  UNL1        0.0033
     24 C         135.9389  142.4781  154.9288 C.3     1  UNL1        0.0171
     25 C         135.6592  141.0887  155.4200 C.3     1  UNL1        0.0689
     26 N         136.3608  140.5689  156.6396 N.3     1  UNL1       -0.2913
     27 H         136.8661  139.7303  156.3537 H       1  UNL1        0.1236
     28 C         140.6491  138.9736  159.9496 C.1     1  UNL1        0.0927
     29 N         142.1475  138.9903  160.0170 N.1     1  UNL1       -0.1942
@<TRIPOS>BOND
     1    14    15    3
     2    15     8    1
     3     8     9   ar
     4     9    10   ar
     5    10    11   ar
     6    11     2    1
     7     2     3   ar
     8     3     4   ar
     9     4     5   ar
    10     5     1    1
    11    16     1    1
    12    16    28    1
    13    28    29    3
    14    16    17    1
    15    17    18   am
    16    18    19    2
    17    21    18    1
    18    21    22    1
    19    22    23    1
    20    23    24    1
    21    24    25    1
    22    25    26    1
    23     5     6   ar
    24     6     7   ar
    25    11    12   ar
    26    12    13   ar
    27    13     8   ar
    28     7     2   ar
    29    26    21    1
    30    17    20    1
    31    26    27    1
@<TRIPOS>MOLECULE
*****
 29 31 0 0 0
SMALL
GASTEIGER

@<TRIPOS>ATOM
      1 C         143.1930  138.5763  166.4395 C.3     1  UNL1        0.0616
      2 C         142.2028  138.2975  162.0586 C.ar    1  UNL1       -0.0000
      3 C         141.3178  137.6334  163.0713 C.ar    1  UNL1       -0.0003
      4 C         141.6479  137.7263  164.5316 C.ar    1  UNL1       -0.0042
      5 C         142.8629  138.4834  164.9792 C.ar    1  UNL1       -0.0194
      6 C         143.7480  139.1475  163.9665 C.ar    1  UNL1       -0.0042
      7 C         143.4179  139.0546  162.5062 C.ar    1  UNL1       -0.0003
      8 C         141.2126  138.0187  157.6778 C.ar    1  UNL1        0.0684
      9 C         140.1789  138.5026  158.6511 C.ar    1  UNL1        0.0103
     10 C         140.5089  138.5955  160.1113 C.ar    1  UNL1        0.0007
     11 C         141.8727  138.2046  160.5984 C.ar    1  UNL1        0.0000
     12 C         142.9064  137.7208  159.6251 C.ar    1  UNL1        0.0007
     13 C         142.5764  137.6278  158.1648 C.ar    1  UNL1        0.0103
     14 N         140.5524  137.8329  154.7572 N.1     1  UNL1       -0.1908
     15 C         140.8825  137.9258  156.2175 C.1     1  UNL1        0.1004
     16 C         142.5867  139.6623  167.2778 C.3     1  UNL1        0.1684
     17 N         141.8291  140.7799  166.6241 N.am    1  UNL1       -0.2925
     18 C         140.3406  140.6848  166.4655 C.2     1  UNL1        0.2374
     19 O         139.6095  139.4722  166.9606 O.2     1  UNL1       -0.2736
     20 H         142.3089  141.5758  166.2992 H       1  UNL1        0.1504
     21 C         139.5831  141.8024  165.8119 C.3     1  UNL1        0.1315
     22 C         139.9837  143.2263  166.0609 C.3     1  UNL1        0.0251
     23 C         139.2262  144.3438  165.4073 C.3     1  UNL1        0.0033
     24 C         138.0681  144.0375  164.5046 C.3     1  UNL1        0.0171
     25 C         137.6675  142.6136  164.2555 C.3     1  UNL1        0.0689
     26 N         138.4250  141.4960  164.9092 N.3     1  UNL1       -0.2913
     27 H         138.7845  140.9058  164.1590 H       1  UNL1        0.1236
     28 C         142.7378  139.6308  168.7699 C.1     1  UNL1        0.0927
     29 N         142.8890  139.5994  170.2619 N.1     1  UNL1       -0.1942
@<TRIPOS>BOND
     1    14    15    3
     2    15     8    1
     3     8     9   ar
     4     9    10   ar
     5    10    11   ar
     6    11     2    1
     7     2     3   ar
     8     3     4   ar
     9     4     5   ar
    10     5     1    1
    11    16     1    1
    12    16    28    1
    13    28    29    3
    14    16    17    1
    15    17    18   am
    16    18    19    2
    17    21    18    1
    18    21    22    1
    19    22    23    1
    20    23    24    1
    21    24    25    1
    22    25    26    1
    23     5     6   ar
    24     6     7   ar
    25    11    12   ar
    26    12    13   ar
    27    13     8   ar
    28     7     2   ar
    29    26    21    1
    30    17    20    1
    31    26    27    1
@<TRIPOS>MOLECULE
*****
 29 31 0 0 0
SMALL
GASTEIGER

@<TRIPOS>ATOM
      1 C         142.9846  137.5491  160.5641 C.3     1  UNL1        0.0616
      2 C         142.0761  138.8128  164.7864 C.ar    1  UNL1       -0.0000
      3 C         143.3257  139.2955  164.1115 C.ar    1  UNL1       -0.0003
      4 C         143.6285  138.8743  162.7041 C.ar    1  UNL1       -0.0042
      5 C         142.6818  137.9703  161.9715 C.ar    1  UNL1       -0.0194
      6 C         141.4322  137.4877  162.6465 C.ar    1  UNL1       -0.0042
      7 C         141.1294  137.9089  164.0539 C.ar    1  UNL1       -0.0003
      8 C         141.1675  140.0765  169.0087 C.ar    1  UNL1        0.0684
      9 C         142.5403  139.5898  168.6504 C.ar    1  UNL1        0.0103
     10 C         142.8432  139.1685  167.2430 C.ar    1  UNL1        0.0007
     11 C         141.7732  139.2341  166.1938 C.ar    1  UNL1        0.0000
     12 C         140.4004  139.7209  166.5520 C.ar    1  UNL1        0.0007
     13 C         140.0976  140.1421  167.9595 C.ar    1  UNL1        0.0103
     14 N         140.5618  140.9190  171.8235 N.1     1  UNL1       -0.1908
     15 C         140.8647  140.4978  170.4161 C.1     1  UNL1        0.1004
     16 C         142.4741  138.3621  159.4116 C.3     1  UNL1        0.1684
     17 N         143.4316  138.8949  158.3872 N.am    1  UNL1       -0.2925
     18 C         143.9586  140.2940  158.5092 C.2     1  UNL1        0.2374
     19 O         143.5282  141.1602  159.6557 O.2     1  UNL1       -0.2736
     20 H         143.7142  138.3264  157.6347 H       1  UNL1        0.1504
     21 C         144.9161  140.8268  157.4848 C.3     1  UNL1        0.1315
     22 C         145.4953  142.2014  157.6430 C.3     1  UNL1        0.0251
     23 C         146.4528  142.7343  156.6186 C.3     1  UNL1        0.0033
     24 C         146.8311  141.8925  155.4362 C.3     1  UNL1        0.0171
     25 C         146.2519  140.5179  155.2780 C.3     1  UNL1        0.0689
     26 N         145.2944  139.9851  156.3023 N.3     1  UNL1       -0.2913
     27 H         145.7049  139.1271  156.6709 H       1  UNL1        0.1236
     28 C         141.0061  138.6423  159.2834 C.1     1  UNL1        0.0927
     29 N         139.5381  138.9225  159.1552 N.1     1  UNL1       -0.1942
@<TRIPOS>BOND
     1    14    15    3
     2    15     8    1
     3     8     9   ar
     4     9    10   ar
     5    10    11   ar
     6    11     2    1
     7     2     3   ar
     8     3     4   ar
     9     4     5   ar
    10     5     1    1
    11    16     1    1
    12    16    28    1
    13    28    29    3
    14    16    17    1
    15    17    18   am
    16    18    19    2
    17    21    18    1
    18    21    22    1
    19    22    23    1
    20    23    24    1
    21    24    25    1
    22    25    26    1
    23     5     6   ar
    24     6     7   ar
    25    11    12   ar
    26    12    13   ar
    27    13     8   ar
    28     7     2   ar
    29    26    21    1
    30    17    20    1
    31    26    27    1
@<TRIPOS>MOLECULE
*****
 29 31 0 0 0
SMALL
GASTEIGER

@<TRIPOS>ATOM
      1 C         144.0854  138.7706  160.5590 C.3     1  UNL1        0.0616
      2 C         143.2203  139.9864  164.8044 C.ar    1  UNL1       -0.0000
      3 C         142.5668  138.7667  164.2256 C.ar    1  UNL1       -0.0003
      4 C         142.8551  138.3614  162.8104 C.ar    1  UNL1       -0.0042
      5 C         143.7970  139.1759  161.9741 C.ar    1  UNL1       -0.0194
      6 C         144.4505  140.3956  162.5530 C.ar    1  UNL1       -0.0042
      7 C         144.1622  140.8009  163.9681 C.ar    1  UNL1       -0.0003
      8 C         142.3552  141.2022  169.0498 C.ar    1  UNL1        0.0684
      9 C         142.2944  139.7559  168.6566 C.ar    1  UNL1        0.0103
     10 C         142.5828  139.3507  167.2415 C.ar    1  UNL1        0.0007
     11 C         142.9319  140.3916  166.2195 C.ar    1  UNL1        0.0000
     12 C         142.9928  141.8379  166.6127 C.ar    1  UNL1        0.0007
     13 C         142.7044  142.2431  168.0279 C.ar    1  UNL1        0.0103
     14 N         141.7785  142.0127  171.8801 N.1     1  UNL1       -0.1908
     15 C         142.0669  141.6074  170.4649 C.1     1  UNL1        0.1004
     16 C         142.9700  138.6925  159.5591 C.3     1  UNL1        0.1684
     17 N         142.6230  137.3787  158.9236 N.am    1  UNL1       -0.2925
     18 C         142.9555  137.1319  157.4820 C.2     1  UNL1        0.2374
     19 O         143.6351  138.1988  156.6757 O.2     1  UNL1       -0.2736
     20 H         142.1770  136.6785  159.4528 H       1  UNL1        0.1504
     21 C         142.6086  135.8182  156.8465 C.3     1  UNL1        0.1315
     22 C         141.6213  135.7683  155.7183 C.3     1  UNL1        0.0251
     23 C         141.2743  134.4547  155.0828 C.3     1  UNL1        0.0033
     24 C         141.9146  133.1909  155.5756 C.3     1  UNL1        0.0171
     25 C         142.9018  133.2407  156.7038 C.3     1  UNL1        0.0689
     26 N         143.2488  134.5544  157.3392 N.3     1  UNL1       -0.2913
     27 H         144.2563  134.6748  157.2352 H       1  UNL1        0.1236
     28 C         142.2016  139.9281  159.1946 C.1     1  UNL1        0.0927
     29 N         141.4332  141.1637  158.8302 N.1     1  UNL1       -0.1942
@<TRIPOS>BOND
     1    14    15    3
     2    15     8    1
     3     8     9   ar
     4     9    10   ar
     5    10    11   ar
     6    11     2    1
     7     2     3   ar
     8     3     4   ar
     9     4     5   ar
    10     5     1    1
    11    16     1    1
    12    16    28    1
    13    28    29    3
    14    16    17    1
    15    17    18   am
    16    18    19    2
    17    21    18    1
    18    21    22    1
    19    22    23    1
    20    23    24    1
    21    24    25    1
    22    25    26    1
    23     5     6   ar
    24     6     7   ar
    25    11    12   ar
    26    12    13   ar
    27    13     8   ar
    28     7     2   ar
    29    26    21    1
    30    17    20    1
    31    26    27    1
@<TRIPOS>MOLECULE
*****
 29 31 0 0 0
SMALL
GASTEIGER

@<TRIPOS>ATOM
      1 C         143.0719  138.6323  166.5391 C.3     1  UNL1        0.0616
      2 C         142.1736  138.3322  162.1399 C.ar    1  UNL1       -0.0000
      3 C         143.2606  139.2461  162.6228 C.ar    1  UNL1       -0.0003
      4 C         143.5600  139.3461  164.0892 C.ar    1  UNL1       -0.0042
      5 C         142.7724  138.5323  165.0727 C.ar    1  UNL1       -0.0194
      6 C         141.6855  137.6184  164.5898 C.ar    1  UNL1       -0.0042
      7 C         141.3860  137.5183  163.1234 C.ar    1  UNL1       -0.0003
      8 C         141.2753  138.0321  157.7407 C.ar    1  UNL1        0.0684
      9 C         142.6304  137.6491  158.2573 C.ar    1  UNL1        0.0103
     10 C         142.9298  137.7491  159.7237 C.ar    1  UNL1        0.0007
     11 C         141.8742  138.2322  160.6735 C.ar    1  UNL1        0.0000
     12 C         140.5191  138.6152  160.1569 C.ar    1  UNL1        0.0007
     13 C         140.2197  138.5152  158.6905 C.ar    1  UNL1        0.0103
     14 N         140.6765  137.8321  154.8079 N.1     1  UNL1       -0.1908
     15 C         140.9759  137.9321  156.2743 C.1     1  UNL1        0.1004
     16 C         142.3020  139.5911  167.3981 C.3     1  UNL1        0.1684
     17 N         141.1203  140.3220  166.8328 N.am    1  UNL1       -0.2925
     18 C         141.3114  141.6470  166.1562 C.2     1  UNL1        0.2374
     19 O         142.6842  142.2412  166.0447 O.2     1  UNL1       -0.2736
     20 H         140.2193  139.9321  166.9060 H       1  UNL1        0.1504
     21 C         140.1297  142.3779  165.5909 C.3     1  UNL1        0.1315
     22 C         138.9781  141.6091  165.0142 C.3     1  UNL1        0.0251
     23 C         137.7964  142.3399  164.4489 C.3     1  UNL1        0.0033
     24 C         137.7664  143.8395  164.4605 C.3     1  UNL1        0.0171
     25 C         138.9180  144.6083  165.0373 C.3     1  UNL1        0.0689
     26 N         140.0997  143.8775  165.6025 N.3     1  UNL1       -0.2913
     27 H         140.1859  144.1663  166.5769 H       1  UNL1        0.1236
     28 C         142.7138  139.8192  168.8223 C.1     1  UNL1        0.0927
     29 N         143.1256  140.0472  170.2465 N.1     1  UNL1       -0.1942
@<TRIPOS>BOND
     1    14    15    3
     2    15     8    1
     3     8     9   ar
     4     9    10   ar
     5    10    11   ar
     6    11     2    1
     7     2     3   ar
     8     3     4   ar
     9     4     5   ar
    10     5     1    1
    11    16     1    1
    12    16    28    1
    13    28    29    3
    14    16    17    1
    15    17    18   am
    16    18    19    2
    17    21    18    1
    18    21    22    1
    19    22    23    1
    20    23    24    1
    21    24    25    1
    22    25    26    1
    23     5     6   ar
    24     6     7   ar
    25    11    12   ar
    26    12    13   ar
    27    13     8   ar
    28     7     2   ar
    29    26    21    1
    30    17    20    1
    31    26    27    1
@<TRIPOS>MOLECULE
*****
 29 31 0 0 0
SMALL
GASTEIGER

@<TRIPOS>ATOM
      1 C         143.1074  137.5793  160.6082 C.3     1  UNL1        0.0616
      2 C         142.1391  138.8347  164.8196 C.ar    1  UNL1       -0.0000
      3 C         143.4240  139.2742  164.1827 C.ar    1  UNL1       -0.0003
      4 C         143.7467  138.8557  162.7788 C.ar    1  UNL1       -0.0042
      5 C         142.7846  137.9977  162.0120 C.ar    1  UNL1       -0.0194
      6 C         141.4997  137.5582  162.6490 C.ar    1  UNL1       -0.0042
      7 C         141.1769  137.9767  164.0528 C.ar    1  UNL1       -0.0003
      8 C         141.1707  140.0901  169.0311 C.ar    1  UNL1        0.0684
      9 C         142.5441  139.5895  168.6947 C.ar    1  UNL1        0.0103
     10 C         142.8669  139.1710  167.2909 C.ar    1  UNL1        0.0007
     11 C         141.8163  139.2532  166.2234 C.ar    1  UNL1        0.0000
     12 C         140.4429  139.7538  166.5598 C.ar    1  UNL1        0.0007
     13 C         140.1202  140.1723  167.9636 C.ar    1  UNL1        0.0103
     14 N         140.5252  140.9271  171.8387 N.1     1  UNL1       -0.1908
     15 C         140.8480  140.5086  170.4349 C.1     1  UNL1        0.1004
     16 C         142.4831  138.2979  159.4490 C.3     1  UNL1        0.1684
     17 N         141.7871  139.6089  159.6661 N.am    1  UNL1       -0.2925
     18 C         142.5837  140.8776  159.7408 C.2     1  UNL1        0.2374
     19 O         144.0764  140.8355  159.5984 O.2     1  UNL1       -0.2736
     20 H         140.8074  139.6365  159.7596 H       1  UNL1        0.1504
     21 C         141.8878  142.1886  159.9578 C.3     1  UNL1        0.1315
     22 C         142.4074  143.1529  160.9825 C.3     1  UNL1        0.0251
     23 C         141.7115  144.4638  161.1996 C.3     1  UNL1        0.0033
     24 C         140.4959  144.8104  160.3920 C.3     1  UNL1        0.0171
     25 C         139.9763  143.8460  159.3673 C.3     1  UNL1        0.0689
     26 N         140.6722  142.5351  159.1502 N.3     1  UNL1       -0.2913
     27 H         140.9528  142.5095  158.1699 H       1  UNL1        0.1236
     28 C         142.5547  137.7057  158.0728 C.1     1  UNL1        0.0927
     29 N         142.6263  137.1134  156.6965 N.1     1  UNL1       -0.1942
@<TRIPOS>BOND
     1    14    15    3
     2    15     8    1
     3     8     9   ar
     4     9    10   ar
     5    10    11   ar
     6    11     2    1
     7     2     3   ar
     8     3     4   ar
     9     4     5   ar
    10     5     1    1
    11    16     1    1
    12    16    28    1
    13    28    29    3
    14    16    17    1
    15    17    18   am
    16    18    19    2
    17    21    18    1
    18    21    22    1
    19    22    23    1
    20    23    24    1
    21    24    25    1
    22    25    26    1
    23     5     6   ar
    24     6     7   ar
    25    11    12   ar
    26    12    13   ar
    27    13     8   ar
    28     7     2   ar
    29    26    21    1
    30    17    20    1
    31    26    27    1
@<TRIPOS>MOLECULE
*****
 29 31 0 0 0
SMALL
GASTEIGER

@<TRIPOS>ATOM
      1 C         138.5860  139.3626  166.8907 C.3     1  UNL1        0.0616
      2 C         138.7902  139.4430  162.3961 C.ar    1  UNL1       -0.0000
      3 C         138.1599  140.5836  163.1387 C.ar    1  UNL1       -0.0003
      4 C         138.0918  140.5568  164.6369 C.ar    1  UNL1       -0.0042
      5 C         138.6541  139.3894  165.3925 C.ar    1  UNL1       -0.0194
      6 C         139.2845  138.2487  164.6498 C.ar    1  UNL1       -0.0042
      7 C         139.3525  138.2756  163.1516 C.ar    1  UNL1       -0.0003
      8 C         138.9944  139.5234  157.9014 C.ar    1  UNL1        0.0684
      9 C         139.7841  138.5057  158.6700 C.ar    1  UNL1        0.0103
     10 C         139.7160  138.4789  160.1682 C.ar    1  UNL1        0.0007
     11 C         138.8583  139.4698  160.8978 C.ar    1  UNL1        0.0000
     12 C         138.0686  140.4875  160.1293 C.ar    1  UNL1        0.0007
     13 C         138.1367  140.5143  158.6311 C.ar    1  UNL1        0.0103
     14 N         139.1306  139.5770  154.9050 N.1     1  UNL1       -0.1908
     15 C         139.0625  139.5502  156.4032 C.1     1  UNL1        0.1004
     16 C         139.6061  140.1058  167.7012 C.3     1  UNL1        0.1684
     17 N         140.6652  140.9156  167.0138 N.am    1  UNL1       -0.2925
     18 C         141.9266  140.2549  166.5423 C.2     1  UNL1        0.2374
     19 O         142.1289  138.7843  166.7582 O.2     1  UNL1       -0.2736
     20 H         140.5325  141.8807  166.8720 H       1  UNL1        0.1504
     21 C         142.9857  141.0647  165.8548 C.3     1  UNL1        0.1315
     22 C         143.1687  142.5117  166.2048 C.3     1  UNL1        0.0251
     23 C         144.2278  143.3215  165.5174 C.3     1  UNL1        0.0033
     24 C         145.1038  142.6842  164.4800 C.3     1  UNL1        0.0171
     25 C         144.9209  141.2372  164.1299 C.3     1  UNL1        0.0689
     26 N         143.8618  140.4274  164.8174 N.3     1  UNL1       -0.2913
     27 H         144.3363  139.6471  165.2716 H       1  UNL1        0.1236
     28 C         139.5671  140.0393  169.1993 C.1     1  UNL1        0.0927
     29 N         139.5281  139.9728  170.6973 N.1     1  UNL1       -0.1942
@<TRIPOS>BOND
     1    14    15    3
     2    15     8    1
     3     8     9   ar
     4     9    10   ar
     5    10    11   ar
     6    11     2    1
     7     2     3   ar
     8     3     4   ar
     9     4     5   ar
    10     5     1    1
    11    16     1    1
    12    16    28    1
    13    28    29    3
    14    16    17    1
    15    17    18   am
    16    18    19    2
    17    21    18    1
    18    21    22    1
    19    22    23    1
    20    23    24    1
    21    24    25    1
    22    25    26    1
    23     5     6   ar
    24     6     7   ar
    25    11    12   ar
    26    12    13   ar
    27    13     8   ar
    28     7     2   ar
    29    26    21    1
    30    17    20    1
    31    26    27    1
@<TRIPOS>MOLECULE
*****
 29 31 0 0 0
SMALL
GASTEIGER

@<TRIPOS>ATOM
      1 C         137.4203  139.7807  160.7681 C.3     1  UNL1        0.0616
      2 C         138.9276  140.6215  164.9240 C.ar    1  UNL1       -0.0000
      3 C         138.2912  141.7170  164.1210 C.ar    1  UNL1       -0.0003
      4 C         137.7888  141.4367  162.7357 C.ar    1  UNL1       -0.0042
      5 C         137.9227  140.0609  162.1534 C.ar    1  UNL1       -0.0194
      6 C         138.5591  138.9654  162.9563 C.ar    1  UNL1       -0.0042
      7 C         139.0615  139.2457  164.3416 C.ar    1  UNL1       -0.0003
      8 C         140.4348  141.4623  169.0798 C.ar    1  UNL1        0.0684
      9 C         139.7357  140.1688  168.7830 C.ar    1  UNL1        0.0103
     10 C         139.2333  139.8885  167.3977 C.ar    1  UNL1        0.0007
     11 C         139.4300  140.9017  166.3093 C.ar    1  UNL1        0.0000
     12 C         140.1290  142.1952  166.6061 C.ar    1  UNL1        0.0007
     13 C         140.6314  142.4755  167.9914 C.ar    1  UNL1        0.0103
     14 N         141.4396  142.0228  171.8504 N.1     1  UNL1       -0.1908
     15 C         140.9372  141.7425  170.4651 C.1     1  UNL1        0.1004
     16 C         138.2891  140.0752  159.5813 C.3     1  UNL1        0.1684
     17 N         137.6854  140.1508  158.2102 N.am    1  UNL1       -0.2925
     18 C         137.4475  141.4853  157.5679 C.2     1  UNL1        0.2374
     19 O         137.8133  142.7443  158.2968 O.2     1  UNL1       -0.2736
     20 H         137.4453  139.3245  157.7318 H       1  UNL1        0.1504
     21 C         136.8439  141.5609  156.1968 C.3     1  UNL1        0.1315
     22 C         135.4701  141.0110  155.9508 C.3     1  UNL1        0.0251
     23 C         134.8664  141.0865  154.5798 C.3     1  UNL1        0.0033
     24 C         135.6365  141.7119  153.4547 C.3     1  UNL1        0.0171
     25 C         137.0102  142.2618  153.7007 C.3     1  UNL1        0.0689
     26 N         137.6139  142.1863  155.0717 N.3     1  UNL1       -0.2913
     27 H         137.8231  143.1437  155.3545 H       1  UNL1        0.1236
     28 C         139.7615  140.2942  159.7656 C.1     1  UNL1        0.0927
     29 N         141.2340  140.5133  159.9499 N.1     1  UNL1       -0.1942
@<TRIPOS>BOND
     1    14    15    3
     2    15     8    1
     3     8     9   ar
     4     9    10   ar
     5    10    11   ar
     6    11     2    1
     7     2     3   ar
     8     3     4   ar
     9     4     5   ar
    10     5     1    1
    11    16     1    1
    12    16    28    1
    13    28    29    3
    14    16    17    1
    15    17    18   am
    16    18    19    2
    17    21    18    1
    18    21    22    1
    19    22    23    1
    20    23    24    1
    21    24    25    1
    22    25    26    1
    23     5     6   ar
    24     6     7   ar
    25    11    12   ar
    26    12    13   ar
    27    13     8   ar
    28     7     2   ar
    29    26    21    1
    30    17    20    1
    31    26    27    1
