@<TRIPOS>MOLECULE
*****
 38 42 0 0 0
SMALL
GASTEIGER

@<TRIPOS>ATOM
      1 C         139.1373  138.5860  162.5529 C.3     1  UNL1        0.2588
      2 N         140.2965  139.9522  164.4343 N.am    1  UNL1       -0.2664
      3 C         139.4475  138.7922  164.0060 C.2     1  UNL1        0.2689
      4 O         138.9085  137.8386  165.0306 O.2     1  UNL1       -0.2708
      5 H         140.6503  140.5782  163.7618 H       1  UNL1        0.1564
      6 C         141.2269  140.5712  168.7933 C.ar    1  UNL1        0.0877
      7 C         142.1668  139.7825  167.9304 C.ar    1  UNL1        0.0147
      8 C         141.8567  139.5762  166.4774 C.ar    1  UNL1        0.0352
      9 C         140.6067  140.1586  165.8873 C.ar    1  UNL1        0.1343
     10 N         139.6668  140.9472  166.7501 N.ar    1  UNL1       -0.2283
     11 C         139.9769  141.1536  168.2032 C.ar    1  UNL1        0.1105
     12 N         141.8472  140.9839  171.6994 N.1     1  UNL1       -0.1908
     13 C         141.5371  140.7775  170.2463 C.1     1  UNL1        0.1020
     14 C         137.9987  139.3266  161.9165 C.3     1  UNL1        0.1261
     15 N         137.8812  140.8121  162.0879 N.3     1  UNL1       -0.2650
     16 C         138.2588  142.0080  161.2648 C.3     1  UNL1        0.1033
     17 C         137.7149  142.9129  162.3303 C.3     1  UNL1        0.1423
     18 O         137.5973  144.3985  162.5016 O.3     1  UNL1       -0.3816
     19 C         137.3373  141.7172  163.1532 C.3     1  UNL1        0.1033
     20 H         137.9693  144.8440  161.7245 H       1  UNL1        0.2105
     21 O         139.9659  137.6391  161.7363 O.3     1  UNL1       -0.4529
     22 C         141.3473  138.0326  161.3039 C.ar    1  UNL1        0.2312
     23 N         142.5309  137.6652  162.1489 N.ar    1  UNL1       -0.1892
     24 C         143.9122  138.0588  161.7164 C.ar    1  UNL1        0.2029
     25 N         144.1099  138.8198  160.4390 N.ar    1  UNL1       -0.2046
     26 C         142.9263  139.1872  159.5940 C.ar    1  UNL1        0.1715
     27 C         141.5450  138.7936  160.0264 C.ar    1  UNL1        0.1098
     28 C         140.5767  139.2916  158.9946 C.ar    1  UNL1        0.1283
     29 N         141.3597  139.9929  157.9245 N.ar    1  UNL1       -0.1619
     30 N         142.8118  139.9284  158.2950 N.ar    1  UNL1       -0.2103
     31 C         143.9496  140.5040  157.5051 C.ar    1  UNL1        0.1054
     32 C         144.4297  139.8088  156.2657 C.ar    1  UNL1        0.0762
     33 CL        143.7719  138.5378  155.8161 Cl      1  UNL1       -0.0806
     34 C         145.5675  140.3844  155.4758 C.ar    1  UNL1        0.0130
     35 C         146.2254  141.6553  155.9253 C.ar    1  UNL1        0.0018
     36 C         145.7453  142.3505  157.1647 C.ar    1  UNL1        0.0130
     37 C         144.6075  141.7749  157.9546 C.ar    1  UNL1        0.0762
     38 CL        144.1275  142.4702  159.1940 Cl      1  UNL1       -0.0806
@<TRIPOS>BOND
     1    12    13    3
     2    13     6    1
     3     6     7   ar
     4     7     8   ar
     5     8     9   ar
     6     9     2    1
     7     2     3   am
     8     3     4    2
     9     3     1    1
    10     1    14    1
    11    14    15    1
    12    15    16    1
    13    16    17    1
    14    17    18    1
    15    17    19    1
    16     1    21    1
    17    21    22    1
    18    22    23   ar
    19    23    24   ar
    20    24    25   ar
    21    25    26   ar
    22    26    27   ar
    23    27    28   ar
    24    28    29   ar
    25    29    30   ar
    26    30    31    1
    27    31    32   ar
    28    32    33    1
    29    32    34   ar
    30    34    35   ar
    31    35    36   ar
    32    36    37   ar
    33    37    38    1
    34     9    10   ar
    35    10    11   ar
    36    11     6   ar
    37    19    15    1
    38    27    22   ar
    39    37    31   ar
    40    30    26   ar
    41     2     5    1
    42    18    20    1
@<TRIPOS>MOLECULE
*****
 38 42 0 0 0
SMALL
GASTEIGER

@<TRIPOS>ATOM
      1 C         143.9763  142.7342  162.7180 C.3     1  UNL1        0.2588
      2 N         142.4602  141.9223  164.6655 N.am    1  UNL1       -0.2664
      3 C         143.5964  142.7663  164.1688 C.2     1  UNL1        0.2689
      4 O         144.3528  143.6425  165.1229 O.2     1  UNL1       -0.2708
      5 H         141.9638  141.3472  164.0393 H       1  UNL1        0.1564
      6 C         141.3207  142.0186  169.0178 C.ar    1  UNL1        0.0877
      7 C         140.4950  142.7615  168.0096 C.ar    1  UNL1        0.0147
      8 C         140.8748  142.7294  166.5589 C.ar    1  UNL1        0.0352
      9 C         142.0804  141.9544  166.1162 C.ar    1  UNL1        0.1343
     10 N         142.9061  141.2115  167.1243 N.ar    1  UNL1       -0.2283
     11 C         142.5263  141.2435  168.5751 C.ar    1  UNL1        0.1105
     12 N         140.5610  142.0829  171.9193 N.1     1  UNL1       -0.1908
     13 C         140.9409  142.0507  170.4685 C.1     1  UNL1        0.1020
     14 C         144.5436  141.4815  162.1189 C.3     1  UNL1        0.1261
     15 N         143.7465  140.2111  162.1426 N.3     1  UNL1       -0.2650
     16 C         143.9348  138.8519  162.7487 C.3     1  UNL1        0.1033
     17 C         142.6192  138.4144  162.1761 C.3     1  UNL1        0.1423
     18 O         141.8221  137.1439  162.1999 O.3     1  UNL1       -0.3816
     19 C         142.4309  139.7734  161.5701 C.3     1  UNL1        0.1033
     20 H         142.2987  136.4728  162.7131 H       1  UNL1        0.2105
     21 O         143.7887  143.9547  161.8665 O.3     1  UNL1       -0.4529
     22 C         142.4291  144.2944  161.3317 C.ar    1  UNL1        0.2312
     23 N         141.4398  145.0137  162.2000 N.ar    1  UNL1       -0.1892
     24 C         140.0802  145.3533  161.6653 C.ar    1  UNL1        0.2029
     25 N         139.7098  144.9738  160.2621 N.ar    1  UNL1       -0.2046
     26 C         140.6991  144.2545  159.3938 C.ar    1  UNL1        0.1715
     27 C         142.0587  143.9148  159.9286 C.ar    1  UNL1        0.1098
     28 C         142.8187  143.2065  158.8466 C.ar    1  UNL1        0.1283
     29 N         141.9288  143.1084  157.6431 N.ar    1  UNL1       -0.1619
     30 N         140.6188  143.7561  157.9813 N.ar    1  UNL1       -0.2103
     31 C         139.4361  143.8832  157.0675 C.ar    1  UNL1        0.1054
     32 C         139.3478  145.0350  156.1107 C.ar    1  UNL1        0.0762
     33 CL        140.4423  146.0599  156.0677 Cl      1  UNL1       -0.0806
     34 C         138.1652  145.1620  155.1968 C.ar    1  UNL1        0.0130
     35 C         137.0707  144.1372  155.2398 C.ar    1  UNL1        0.0018
     36 C         137.1589  142.9854  156.1966 C.ar    1  UNL1        0.0130
     37 C         138.3416  142.8584  157.1104 C.ar    1  UNL1        0.0762
     38 CL        138.4298  141.7065  158.0672 Cl      1  UNL1       -0.0806
@<TRIPOS>BOND
     1    12    13    3
     2    13     6    1
     3     6     7   ar
     4     7     8   ar
     5     8     9   ar
     6     9     2    1
     7     2     3   am
     8     3     4    2
     9     3     1    1
    10     1    14    1
    11    14    15    1
    12    15    16    1
    13    16    17    1
    14    17    18    1
    15    17    19    1
    16     1    21    1
    17    21    22    1
    18    22    23   ar
    19    23    24   ar
    20    24    25   ar
    21    25    26   ar
    22    26    27   ar
    23    27    28   ar
    24    28    29   ar
    25    29    30   ar
    26    30    31    1
    27    31    32   ar
    28    32    33    1
    29    32    34   ar
    30    34    35   ar
    31    35    36   ar
    32    36    37   ar
    33    37    38    1
    34     9    10   ar
    35    10    11   ar
    36    11     6   ar
    37    19    15    1
    38    27    22   ar
    39    37    31   ar
    40    30    26   ar
    41     2     5    1
    42    18    20    1
@<TRIPOS>MOLECULE
*****
 38 42 0 0 0
SMALL
GASTEIGER

@<TRIPOS>ATOM
      1 C         143.4896  142.5006  162.5939 C.3     1  UNL1        0.2588
      2 N         141.4736  140.9265  163.0501 N.am    1  UNL1       -0.2664
      3 C         142.5274  141.8672  163.5547 C.2     1  UNL1        0.2689
      4 O         142.6191  142.1744  165.0200 O.2     1  UNL1       -0.2708
      5 H         141.4135  140.7249  162.0883 H       1  UNL1        0.1564
      6 C         138.5871  139.0261  165.9322 C.ar    1  UNL1        0.0877
      7 C         138.1876  140.2560  165.1719 C.ar    1  UNL1        0.0147
      8 C         139.1498  140.8895  164.2113 C.ar    1  UNL1        0.0352
      9 C         140.5115  140.2931  164.0108 C.ar    1  UNL1        0.1343
     10 N         140.9110  139.0633  164.7709 N.ar    1  UNL1       -0.2283
     11 C         139.9488  138.4298  165.7317 C.ar    1  UNL1        0.1105
     12 N         136.6628  137.7592  167.8536 N.1     1  UNL1       -0.1908
     13 C         137.6250  138.3927  166.8929 C.1     1  UNL1        0.1020
     14 C         144.5626  141.6724  161.9515 C.3     1  UNL1        0.1261
     15 N         144.2865  140.2461  161.5780 N.3     1  UNL1       -0.2650
     16 C         143.8697  139.5403  160.3217 C.3     1  UNL1        0.1033
     17 C         143.8961  138.2291  161.0498 C.3     1  UNL1        0.1423
     18 O         143.6201  136.8028  160.6763 O.3     1  UNL1       -0.3816
     19 C         144.3129  138.9349  162.3059 C.3     1  UNL1        0.1033
     20 H         143.3695  136.7563  159.7404 H       1  UNL1        0.2105
     21 O         143.3788  143.9623  162.2757 O.3     1  UNL1       -0.4529
     22 C         142.1583  144.4879  161.5798 C.ar    1  UNL1        0.2312
     23 N         141.2259  145.4165  162.2998 N.ar    1  UNL1       -0.1892
     24 C         140.0055  145.9421  161.6040 C.ar    1  UNL1        0.2029
     25 N         139.7173  145.5390  160.1882 N.ar    1  UNL1       -0.2046
     26 C         140.6497  144.6104  159.4682 C.ar    1  UNL1        0.1715
     27 C         141.8701  144.0848  160.1640 C.ar    1  UNL1        0.1098
     28 C         142.6011  143.1912  159.2063 C.ar    1  UNL1        0.1283
     29 N         141.8323  143.1645  157.9186 N.ar    1  UNL1       -0.1619
     30 N         140.6263  144.0416  158.0804 N.ar    1  UNL1       -0.2103
     31 C         139.5805  144.3039  157.0376 C.ar    1  UNL1        0.1054
     32 C         139.6650  145.5338  156.1833 C.ar    1  UNL1        0.0762
     33 CL        140.7955  146.5016  156.3717 Cl      1  UNL1       -0.0806
     34 C         138.6192  145.7961  155.1405 C.ar    1  UNL1        0.0130
     35 C         137.4888  144.8284  154.9520 C.ar    1  UNL1        0.0018
     36 C         137.4042  143.5984  155.8063 C.ar    1  UNL1        0.0130
     37 C         138.4500  143.3361  156.8491 C.ar    1  UNL1        0.0762
     38 CL        138.3653  142.1061  157.7034 Cl      1  UNL1       -0.0806
@<TRIPOS>BOND
     1    12    13    3
     2    13     6    1
     3     6     7   ar
     4     7     8   ar
     5     8     9   ar
     6     9     2    1
     7     2     3   am
     8     3     4    2
     9     3     1    1
    10     1    14    1
    11    14    15    1
    12    15    16    1
    13    16    17    1
    14    17    18    1
    15    17    19    1
    16     1    21    1
    17    21    22    1
    18    22    23   ar
    19    23    24   ar
    20    24    25   ar
    21    25    26   ar
    22    26    27   ar
    23    27    28   ar
    24    28    29   ar
    25    29    30   ar
    26    30    31    1
    27    31    32   ar
    28    32    33    1
    29    32    34   ar
    30    34    35   ar
    31    35    36   ar
    32    36    37   ar
    33    37    38    1
    34     9    10   ar
    35    10    11   ar
    36    11     6   ar
    37    19    15    1
    38    27    22   ar
    39    37    31   ar
    40    30    26   ar
    41     2     5    1
    42    18    20    1
@<TRIPOS>MOLECULE
*****
 38 42 0 0 0
SMALL
GASTEIGER

@<TRIPOS>ATOM
      1 C         140.9883  139.2308  162.9184 C.3     1  UNL1        0.2588
      2 N         140.3079  140.7509  164.9125 N.am    1  UNL1       -0.2664
      3 C         141.0124  139.5354  164.3870 C.2     1  UNL1        0.2689
      4 O         141.7410  138.6244  165.3300 O.2     1  UNL1       -0.2708
      5 H         139.8297  141.3487  164.2935 H       1  UNL1        0.1564
      6 C         140.3801  141.6647  169.3181 C.ar    1  UNL1        0.0877
      7 C         141.1040  142.5581  168.3549 C.ar    1  UNL1        0.0147
      8 C         141.0800  142.2535  166.8863 C.ar    1  UNL1        0.0352
      9 C         140.3320  141.0555  166.3810 C.ar    1  UNL1        0.1343
     10 N         139.6081  140.1621  167.3442 N.ar    1  UNL1       -0.2283
     11 C         139.6321  140.4667  168.8128 C.ar    1  UNL1        0.1105
     12 N         140.4283  142.2738  172.2553 N.1     1  UNL1       -0.1908
     13 C         140.4042  141.9693  170.7867 C.1     1  UNL1        0.1020
     14 C         142.2697  138.9585  162.1877 C.3     1  UNL1        0.1261
     15 N         143.4771  139.8096  162.4484 N.3     1  UNL1       -0.2650
     16 C         144.0294  141.0750  161.8622 C.3     1  UNL1        0.1033
     17 C         145.1846  141.0131  162.8170 C.3     1  UNL1        0.1423
     18 O         146.3920  141.8641  163.0777 O.3     1  UNL1       -0.3816
     19 C         144.6323  139.7477  163.4032 C.3     1  UNL1        0.1033
     20 H         146.3923  142.6198  162.4695 H       1  UNL1        0.2105
     21 O         139.6827  139.1985  162.1805 O.3     1  UNL1       -0.4529
     22 C         139.1433  140.4509  161.5555 C.ar    1  UNL1        0.2312
     23 N         138.5830  141.5400  162.4214 N.ar    1  UNL1       -0.1892
     24 C         138.0436  142.7923  161.7964 C.ar    1  UNL1        0.2029
     25 N         138.0645  142.9555  160.3054 N.ar    1  UNL1       -0.2046
     26 C         138.6248  141.8664  159.4395 C.ar    1  UNL1        0.1715
     27 C         139.1642  140.6141  160.0645 C.ar    1  UNL1        0.1098
     28 C         139.6501  139.7186  158.9635 C.ar    1  UNL1        0.1283
     29 N         139.4109  140.4176  157.6581 N.ar    1  UNL1       -0.1619
     30 N         138.7773  141.7450  157.9522 N.ar    1  UNL1       -0.2103
     31 C         138.3680  142.7709  156.9373 C.ar    1  UNL1        0.1054
     32 C         137.0963  142.5931  156.1620 C.ar    1  UNL1        0.0762
     33 CL        136.2339  141.3894  156.4015 Cl      1  UNL1       -0.0806
     34 C         136.6870  143.6190  155.1471 C.ar    1  UNL1        0.0130
     35 C         137.5494  144.8227  154.9075 C.ar    1  UNL1        0.0018
     36 C         138.8210  145.0005  155.6829 C.ar    1  UNL1        0.0130
     37 C         139.2304  143.9746  156.6978 C.ar    1  UNL1        0.0762
     38 CL        140.5020  144.1525  157.4731 Cl      1  UNL1       -0.0806
@<TRIPOS>BOND
     1    12    13    3
     2    13     6    1
     3     6     7   ar
     4     7     8   ar
     5     8     9   ar
     6     9     2    1
     7     2     3   am
     8     3     4    2
     9     3     1    1
    10     1    14    1
    11    14    15    1
    12    15    16    1
    13    16    17    1
    14    17    18    1
    15    17    19    1
    16     1    21    1
    17    21    22    1
    18    22    23   ar
    19    23    24   ar
    20    24    25   ar
    21    25    26   ar
    22    26    27   ar
    23    27    28   ar
    24    28    29   ar
    25    29    30   ar
    26    30    31    1
    27    31    32   ar
    28    32    33    1
    29    32    34   ar
    30    34    35   ar
    31    35    36   ar
    32    36    37   ar
    33    37    38    1
    34     9    10   ar
    35    10    11   ar
    36    11     6   ar
    37    19    15    1
    38    27    22   ar
    39    37    31   ar
    40    30    26   ar
    41     2     5    1
    42    18    20    1
@<TRIPOS>MOLECULE
*****
 38 42 0 0 0
SMALL
GASTEIGER

@<TRIPOS>ATOM
      1 C         140.3034  144.1446  161.7041 C.3     1  UNL1        0.2588
      2 N         140.6978  142.3911  163.5801 N.am    1  UNL1       -0.2664
      3 C         140.0486  143.6548  163.0988 C.2     1  UNL1        0.2689
      4 O         139.1449  144.4286  164.0122 O.2     1  UNL1       -0.2708
      5 H         141.2910  141.8832  162.9806 H       1  UNL1        0.1564
      6 C         139.9337  140.9214  167.7642 C.ar    1  UNL1        0.0877
      7 C         140.7648  142.1500  167.5408 C.ar    1  UNL1        0.0147
      8 C         141.0195  142.6399  166.1462 C.ar    1  UNL1        0.0352
      9 C         140.4431  141.9012  164.9748 C.ar    1  UNL1        0.1343
     10 N         139.6120  140.6727  165.1981 N.ar    1  UNL1       -0.2283
     11 C         139.3573  140.1827  166.5928 C.ar    1  UNL1        0.1105
     12 N         139.4244  139.9416  170.5536 N.1     1  UNL1       -0.1908
     13 C         139.6790  140.4315  169.1588 C.1     1  UNL1        0.1020
     14 C         141.6460  144.7055  161.3396 C.3     1  UNL1        0.1261
     15 N         142.8922  143.9322  161.6540 N.3     1  UNL1       -0.2650
     16 C         143.5687  142.7275  161.0699 C.3     1  UNL1        0.1033
     17 C         144.6547  142.8386  162.0985 C.3     1  UNL1        0.1423
     18 O         145.9010  142.0654  162.4129 O.3     1  UNL1       -0.3816
     19 C         143.9783  144.0433  162.6826 C.3     1  UNL1        0.1033
     20 H         145.9931  141.3314  161.7854 H       1  UNL1        0.2105
     21 O         139.2154  144.0736  160.6739 O.3     1  UNL1       -0.4529
     22 C         138.7463  142.7412  160.1692 C.ar    1  UNL1        0.2312
     23 N         138.3767  141.6592  161.1401 N.ar    1  UNL1       -0.1892
     24 C         137.9075  140.3269  160.6354 C.ar    1  UNL1        0.2029
     25 N         137.8079  140.0766  159.1598 N.ar    1  UNL1       -0.2046
     26 C         138.1775  141.1585  158.1889 C.ar    1  UNL1        0.1715
     27 C         138.6467  142.4908  158.6936 C.ar    1  UNL1        0.1098
     28 C         138.9399  143.3593  157.5061 C.ar    1  UNL1        0.1283
     29 N         138.6520  142.5636  156.2676 N.ar    1  UNL1       -0.1619
     30 N         138.1808  141.2035  156.6896 N.ar    1  UNL1       -0.2103
     31 C         137.7828  140.0847  155.7731 C.ar    1  UNL1        0.1054
     32 C         136.4273  140.0874  155.1309 C.ar    1  UNL1        0.0762
     33 CL        135.4697  141.2090  155.4051 Cl      1  UNL1       -0.0806
     34 C         136.0292  138.9686  154.2144 C.ar    1  UNL1        0.0130
     35 C         136.9868  137.8471  153.9402 C.ar    1  UNL1        0.0018
     36 C         138.3423  137.8443  154.5824 C.ar    1  UNL1        0.0130
     37 C         138.7403  138.9631  155.4989 C.ar    1  UNL1        0.0762
     38 CL        140.0958  138.9603  156.1411 Cl      1  UNL1       -0.0806
@<TRIPOS>BOND
     1    12    13    3
     2    13     6    1
     3     6     7   ar
     4     7     8   ar
     5     8     9   ar
     6     9     2    1
     7     2     3   am
     8     3     4    2
     9     3     1    1
    10     1    14    1
    11    14    15    1
    12    15    16    1
    13    16    17    1
    14    17    18    1
    15    17    19    1
    16     1    21    1
    17    21    22    1
    18    22    23   ar
    19    23    24   ar
    20    24    25   ar
    21    25    26   ar
    22    26    27   ar
    23    27    28   ar
    24    28    29   ar
    25    29    30   ar
    26    30    31    1
    27    31    32   ar
    28    32    33    1
    29    32    34   ar
    30    34    35   ar
    31    35    36   ar
    32    36    37   ar
    33    37    38    1
    34     9    10   ar
    35    10    11   ar
    36    11     6   ar
    37    19    15    1
    38    27    22   ar
    39    37    31   ar
    40    30    26   ar
    41     2     5    1
    42    18    20    1
@<TRIPOS>MOLECULE
*****
 38 42 0 0 0
SMALL
GASTEIGER

@<TRIPOS>ATOM
      1 C         142.9396  138.6406  163.3539 C.3     1  UNL1        0.2588
      2 N         143.0760  140.1607  165.4564 N.am    1  UNL1       -0.2664
      3 C         142.4183  139.0438  164.7014 C.2     1  UNL1        0.2689
      4 O         141.2395  138.3302  165.2939 O.2     1  UNL1       -0.2708
      5 H         143.8497  140.6291  165.0676 H       1  UNL1        0.1564
      6 C         141.5123  141.3705  169.4989 C.ar    1  UNL1        0.0877
      7 C         141.3658  142.2986  168.3295 C.ar    1  UNL1        0.0147
      8 C         141.8871  141.8953  166.9821 C.ar    1  UNL1        0.0352
      9 C         142.5547  140.5640  166.8039 C.ar    1  UNL1        0.1343
     10 N         142.7012  139.6359  167.9731 N.ar    1  UNL1       -0.2283
     11 C         142.1800  140.0392  169.3207 C.ar    1  UNL1        0.1105
     12 N         140.4698  142.1771  172.1938 N.1     1  UNL1       -0.1908
     13 C         140.9911  141.7738  170.8463 C.1     1  UNL1        0.1020
     14 C         144.2332  139.2082  162.8496 C.3     1  UNL1        0.1261
     15 N         144.3807  140.6894  162.6643 N.3     1  UNL1       -0.2650
     16 C         145.4694  141.6878  162.9251 C.3     1  UNL1        0.1033
     17 C         144.5892  142.7841  162.4023 C.3     1  UNL1        0.1423
     18 O         144.7367  144.2653  162.2170 O.3     1  UNL1       -0.3816
     19 C         143.5006  141.7858  162.1415 C.3     1  UNL1        0.1033
     20 H         145.6172  144.5423  162.5149 H       1  UNL1        0.2105
     21 O         142.1673  137.6696  162.5108 O.3     1  UNL1       -0.4529
     22 C         140.8871  138.0975  161.8564 C.ar    1  UNL1        0.2312
     23 N         139.5705  137.7458  162.4829 N.ar    1  UNL1       -0.1892
     24 C         138.2904  138.1737  161.8284 C.ar    1  UNL1        0.2029
     25 N         138.3271  138.9534  160.5475 N.ar    1  UNL1       -0.2046
     26 C         139.6437  139.3051  159.9210 C.ar    1  UNL1        0.1715
     27 C         140.9238  138.8772  160.5755 C.ar    1  UNL1        0.1098
     28 C         142.0626  139.3663  159.7304 C.ar    1  UNL1        0.1283
     29 N         141.4862  140.0964  158.5536 N.ar    1  UNL1       -0.1619
     30 N         139.9913  140.0586  158.6715 N.ar    1  UNL1       -0.2103
     31 C         139.0153  140.6675  157.7088 C.ar    1  UNL1        0.1054
     32 C         138.3969  142.0004  158.0101 C.ar    1  UNL1        0.0762
     33 CL        138.7545  142.7246  159.2741 Cl      1  UNL1       -0.0806
     34 C         137.4209  142.6092  157.0474 C.ar    1  UNL1        0.0130
     35 C         137.0633  141.8851  155.7833 C.ar    1  UNL1        0.0018
     36 C         137.6818  140.5521  155.4821 C.ar    1  UNL1        0.0130
     37 C         138.6577  139.9433  156.4448 C.ar    1  UNL1        0.0762
     38 CL        139.2761  138.6104  156.1434 Cl      1  UNL1       -0.0806
@<TRIPOS>BOND
     1    12    13    3
     2    13     6    1
     3     6     7   ar
     4     7     8   ar
     5     8     9   ar
     6     9     2    1
     7     2     3   am
     8     3     4    2
     9     3     1    1
    10     1    14    1
    11    14    15    1
    12    15    16    1
    13    16    17    1
    14    17    18    1
    15    17    19    1
    16     1    21    1
    17    21    22    1
    18    22    23   ar
    19    23    24   ar
    20    24    25   ar
    21    25    26   ar
    22    26    27   ar
    23    27    28   ar
    24    28    29   ar
    25    29    30   ar
    26    30    31    1
    27    31    32   ar
    28    32    33    1
    29    32    34   ar
    30    34    35   ar
    31    35    36   ar
    32    36    37   ar
    33    37    38    1
    34     9    10   ar
    35    10    11   ar
    36    11     6   ar
    37    19    15    1
    38    27    22   ar
    39    37    31   ar
    40    30    26   ar
    41     2     5    1
    42    18    20    1
@<TRIPOS>MOLECULE
*****
 38 42 0 0 0
SMALL
GASTEIGER

@<TRIPOS>ATOM
      1 C         139.2706  143.9996  162.4313 C.3     1  UNL1        0.2588
      2 N         140.1840  142.4484  164.3046 N.am    1  UNL1       -0.2664
      3 C         139.1654  143.4358  163.8173 C.2     1  UNL1        0.2689
      4 O         138.0416  143.8593  164.7160 O.2     1  UNL1       -0.2708
      5 H         140.9216  142.1704  163.7148 H       1  UNL1        0.1564
      6 C         139.8685  140.7568  168.4626 C.ar    1  UNL1        0.0877
      7 C         139.3831  139.9583  167.2892 C.ar    1  UNL1        0.0147
      8 C         139.4883  140.5222  165.9032 C.ar    1  UNL1        0.0352
      9 C         140.0788  141.8845  165.6906 C.ar    1  UNL1        0.1343
     10 N         140.5642  142.6830  166.8639 N.ar    1  UNL1       -0.2283
     11 C         140.4591  142.1192  168.2500 C.ar    1  UNL1        0.1105
     12 N         139.6581  139.6291  171.2347 N.1     1  UNL1       -0.1908
     13 C         139.7633  140.1930  169.8486 C.1     1  UNL1        0.1020
     14 C         140.3919  144.9338  162.0847 C.3     1  UNL1        0.1261
     15 N         141.8037  144.4287  162.0450 N.3     1  UNL1       -0.2650
     16 C         143.0114  144.5857  162.9209 C.3     1  UNL1        0.1033
     17 C         143.8004  143.7145  161.9889 C.3     1  UNL1        0.1423
     18 O         145.2122  143.2095  161.9493 O.3     1  UNL1       -0.3816
     19 C         142.5928  143.5575  161.1132 C.3     1  UNL1        0.1033
     20 H         145.6970  143.5439  162.7200 H       1  UNL1        0.2105
     21 O         138.2546  143.6293  161.3918 O.3     1  UNL1       -0.4529
     22 C         138.1875  142.2221  160.8764 C.ar    1  UNL1        0.2312
     23 N         137.4458  141.1740  161.6518 N.ar    1  UNL1       -0.1892
     24 C         137.3788  139.7669  161.1364 C.ar    1  UNL1        0.2029
     25 N         138.0534  139.4081  159.8456 N.ar    1  UNL1       -0.2046
     26 C         138.7951  140.4562  159.0703 C.ar    1  UNL1        0.1715
     27 C         138.8621  141.8633  159.5857 C.ar    1  UNL1        0.1098
     28 C         139.6606  142.6766  158.6104 C.ar    1  UNL1        0.1283
     29 N         140.0870  141.7722  157.4923 N.ar    1  UNL1       -0.1619
     30 N         139.5521  140.3999  157.7765 N.ar    1  UNL1       -0.2103
     31 C         139.7410  139.1847  156.9178 C.ar    1  UNL1        0.1054
     32 C         140.8238  138.1985  157.2415 C.ar    1  UNL1        0.0762
     33 CL        141.7178  138.4275  158.4240 Cl      1  UNL1       -0.0806
     34 C         141.0128  136.9832  156.3827 C.ar    1  UNL1        0.0130
     35 C         140.1188  136.7542  155.2001 C.ar    1  UNL1        0.0018
     36 C         139.0360  137.7404  154.8764 C.ar    1  UNL1        0.0130
     37 C         138.8471  138.9556  155.7352 C.ar    1  UNL1        0.0762
     38 CL        137.7642  139.9418  155.4114 Cl      1  UNL1       -0.0806
@<TRIPOS>BOND
     1    12    13    3
     2    13     6    1
     3     6     7   ar
     4     7     8   ar
     5     8     9   ar
     6     9     2    1
     7     2     3   am
     8     3     4    2
     9     3     1    1
    10     1    14    1
    11    14    15    1
    12    15    16    1
    13    16    17    1
    14    17    18    1
    15    17    19    1
    16     1    21    1
    17    21    22    1
    18    22    23   ar
    19    23    24   ar
    20    24    25   ar
    21    25    26   ar
    22    26    27   ar
    23    27    28   ar
    24    28    29   ar
    25    29    30   ar
    26    30    31    1
    27    31    32   ar
    28    32    33    1
    29    32    34   ar
    30    34    35   ar
    31    35    36   ar
    32    36    37   ar
    33    37    38    1
    34     9    10   ar
    35    10    11   ar
    36    11     6   ar
    37    19    15    1
    38    27    22   ar
    39    37    31   ar
    40    30    26   ar
    41     2     5    1
    42    18    20    1
@<TRIPOS>MOLECULE
*****
 38 42 0 0 0
SMALL
GASTEIGER

@<TRIPOS>ATOM
      1 C         139.7009  139.2815  158.8371 C.3     1  UNL1        0.2588
      2 N         137.6686  140.6162  157.9216 N.am    1  UNL1       -0.2664
      3 C         138.7165  139.5586  157.7397 C.2     1  UNL1        0.2689
      4 O         138.7801  138.7780  156.4604 O.2     1  UNL1       -0.2708
      5 H         137.6268  141.1286  158.7612 H       1  UNL1        0.1564
      6 C         134.7155  141.4476  154.6294 C.ar    1  UNL1        0.0877
      7 C         136.0392  142.1531  154.6455 C.ar    1  UNL1        0.0147
      8 C         137.0235  141.8760  155.7428 C.ar    1  UNL1        0.0352
      9 C         136.6842  140.8934  156.8242 C.ar    1  UNL1        0.1343
     10 N         135.3606  140.1879  156.8082 N.ar    1  UNL1       -0.2283
     11 C         134.3762  140.4649  155.7108 C.ar    1  UNL1        0.1105
     12 N         132.7468  142.0018  152.4347 N.1     1  UNL1       -0.1908
     13 C         133.7312  141.7247  153.5321 C.1     1  UNL1        0.1020
     14 C         141.1394  139.6723  158.6706 C.3     1  UNL1        0.1261
     15 N         142.1402  139.3189  159.7306 N.3     1  UNL1       -0.2650
     16 C         142.8067  140.0621  160.8502 C.3     1  UNL1        0.1033
     17 C         143.5555  138.8190  161.2296 C.3     1  UNL1        0.1423
     18 O         144.5562  138.4656  162.2896 O.3     1  UNL1       -0.3816
     19 C         142.8890  138.0758  160.1102 C.3     1  UNL1        0.1033
     20 H         144.7364  139.2458  162.8372 H       1  UNL1        0.2105
     21 O         139.2466  138.6136  160.1011 O.3     1  UNL1       -0.4529
     22 C         138.9632  139.4354  161.3235 C.ar    1  UNL1        0.2312
     23 N         138.0434  140.6170  161.2362 N.ar    1  UNL1       -0.1892
     24 C         137.7601  141.4388  162.4587 C.ar    1  UNL1        0.2029
     25 N         138.3965  141.0788  163.7684 N.ar    1  UNL1       -0.2046
     26 C         139.3162  139.8972  163.8557 C.ar    1  UNL1        0.1715
     27 C         139.5996  139.0755  162.6333 C.ar    1  UNL1        0.1098
     28 C         140.5417  137.9750  163.0226 C.ar    1  UNL1        0.1283
     29 N         140.8406  138.1166  164.4857 N.ar    1  UNL1       -0.1619
     30 N         140.0832  139.3046  165.0006 N.ar    1  UNL1       -0.2103
     31 C         140.0913  139.8111  166.4124 C.ar    1  UNL1        0.1054
     32 C         138.9712  139.4538  167.3439 C.ar    1  UNL1        0.0762
     33 CL        137.8429  138.5900  166.8636 Cl      1  UNL1       -0.0806
     34 C         138.9794  139.9603  168.7558 C.ar    1  UNL1        0.0130
     35 C         140.1076  140.8242  169.2362 C.ar    1  UNL1        0.0018
     36 C         141.2277  141.1815  168.3047 C.ar    1  UNL1        0.0130
     37 C         141.2196  140.6750  166.8929 C.ar    1  UNL1        0.0762
     38 CL        142.3397  141.0323  165.9614 Cl      1  UNL1       -0.0806
@<TRIPOS>BOND
     1    12    13    3
     2    13     6    1
     3     6     7   ar
     4     7     8   ar
     5     8     9   ar
     6     9     2    1
     7     2     3   am
     8     3     4    2
     9     3     1    1
    10     1    14    1
    11    14    15    1
    12    15    16    1
    13    16    17    1
    14    17    18    1
    15    17    19    1
    16     1    21    1
    17    21    22    1
    18    22    23   ar
    19    23    24   ar
    20    24    25   ar
    21    25    26   ar
    22    26    27   ar
    23    27    28   ar
    24    28    29   ar
    25    29    30   ar
    26    30    31    1
    27    31    32   ar
    28    32    33    1
    29    32    34   ar
    30    34    35   ar
    31    35    36   ar
    32    36    37   ar
    33    37    38    1
    34     9    10   ar
    35    10    11   ar
    36    11     6   ar
    37    19    15    1
    38    27    22   ar
    39    37    31   ar
    40    30    26   ar
    41     2     5    1
    42    18    20    1
@<TRIPOS>MOLECULE
*****
 38 42 0 0 0
SMALL
GASTEIGER

@<TRIPOS>ATOM
      1 C         137.9782  140.1529  162.7912 C.3     1  UNL1        0.2588
      2 N         139.1768  140.8980  164.9726 N.am    1  UNL1       -0.2664
      3 C         138.8450  139.8306  163.9723 C.2     1  UNL1        0.2689
      4 O         139.3799  138.4409  164.1532 O.2     1  UNL1       -0.2708
      5 H         138.8258  141.8101  164.8539 H       1  UNL1        0.1564
      6 C         141.7769  139.9313  168.5159 C.ar    1  UNL1        0.0877
      7 C         142.3957  140.1339  167.1645 C.ar    1  UNL1        0.0147
      8 C         141.5290  140.4562  165.9834 C.ar    1  UNL1        0.0352
      9 C         140.0435  140.5758  166.1537 C.ar    1  UNL1        0.1343
     10 N         139.4247  140.3731  167.5049 N.ar    1  UNL1       -0.2283
     11 C         140.2914  140.0509  168.6861 C.ar    1  UNL1        0.1105
     12 N         143.5104  139.2869  170.8781 N.1     1  UNL1       -0.1908
     13 C         142.6436  139.6091  169.6969 C.1     1  UNL1        0.1020
     14 C         137.2563  141.4661  162.7269 C.3     1  UNL1        0.1261
     15 N         138.0323  142.7497  162.7329 N.3     1  UNL1       -0.2650
     16 C         139.3720  143.1817  162.2144 C.3     1  UNL1        0.1033
     17 C         139.1299  144.5650  162.7414 C.3     1  UNL1        0.1423
     18 O         139.9059  145.8486  162.7475 O.3     1  UNL1       -0.3816
     19 C         137.7903  144.1331  163.2599 C.3     1  UNL1        0.1033
     20 H         140.7551  145.7152  162.2981 H       1  UNL1        0.2105
     21 O         137.8335  139.1619  161.6745 O.3     1  UNL1       -0.4529
     22 C         138.4429  139.4482  160.3341 C.ar    1  UNL1        0.2312
     23 N         137.6288  140.1197  159.2682 N.ar    1  UNL1       -0.1892
     24 C         138.2381  140.4060  157.9278 C.ar    1  UNL1        0.2029
     25 N         139.6616  140.0207  157.6533 N.ar    1  UNL1       -0.2046
     26 C         140.4757  139.3491  158.7192 C.ar    1  UNL1        0.1715
     27 C         139.8663  139.0629  160.0596 C.ar    1  UNL1        0.1098
     28 C         140.9066  138.3940  160.9084 C.ar    1  UNL1        0.1283
     29 N         142.1589  138.2669  160.0926 N.ar    1  UNL1       -0.1619
     30 N         141.8926  138.8572  158.7396 N.ar    1  UNL1       -0.2103
     31 C         142.8713  138.9409  157.6060 C.ar    1  UNL1        0.1054
     32 C         142.9853  137.8091  156.6283 C.ar    1  UNL1        0.0762
     33 CL        142.1205  136.5933  156.7843 Cl      1  UNL1       -0.0806
     34 C         143.9640  137.8928  155.4947 C.ar    1  UNL1        0.0130
     35 C         144.8288  139.1084  155.3387 C.ar    1  UNL1        0.0018
     36 C         144.7148  140.2403  156.3163 C.ar    1  UNL1        0.0130
     37 C         143.7361  140.1566  157.4499 C.ar    1  UNL1        0.0762
     38 CL        143.6222  141.2885  158.4275 Cl      1  UNL1       -0.0806
@<TRIPOS>BOND
     1    12    13    3
     2    13     6    1
     3     6     7   ar
     4     7     8   ar
     5     8     9   ar
     6     9     2    1
     7     2     3   am
     8     3     4    2
     9     3     1    1
    10     1    14    1
    11    14    15    1
    12    15    16    1
    13    16    17    1
    14    17    18    1
    15    17    19    1
    16     1    21    1
    17    21    22    1
    18    22    23   ar
    19    23    24   ar
    20    24    25   ar
    21    25    26   ar
    22    26    27   ar
    23    27    28   ar
    24    28    29   ar
    25    29    30   ar
    26    30    31    1
    27    31    32   ar
    28    32    33    1
    29    32    34   ar
    30    34    35   ar
    31    35    36   ar
    32    36    37   ar
    33    37    38    1
    34     9    10   ar
    35    10    11   ar
    36    11     6   ar
    37    19    15    1
    38    27    22   ar
    39    37    31   ar
    40    30    26   ar
    41     2     5    1
    42    18    20    1
