@<TRIPOS>MOLECULE
*****
 37 40 0 0 0
SMALL
GASTEIGER

@<TRIPOS>ATOM
      1 N         140.7403  141.8076  167.4705 N.3     1  UNL1       -0.2663
      2 C         140.1956  142.9548  166.6723 C.3     1  UNL1        0.0994
      3 C         141.4353  142.8874  161.6266 C.3     1  UNL1        0.0342
      4 C         140.4195  142.7172  162.7171 C.ar    1  UNL1        0.0118
      5 C         140.8155  142.9211  164.1495 C.ar    1  UNL1       -0.0042
      6 C         139.7996  142.7509  165.2400 C.ar    1  UNL1       -0.0062
      7 C         138.3878  142.3768  164.8981 C.ar    1  UNL1        0.0002
      8 C         137.9919  142.1728  163.4657 C.ar    1  UNL1        0.0363
      9 C         139.0077  142.3430  162.3753 C.ar    1  UNL1        0.1346
     10 O         138.6118  142.1391  160.9429 O.3     1  UNL1       -0.4739
     11 C         138.3974  140.7518  160.4143 C.3     1  UNL1        0.2272
     12 C         139.5677  139.9380  159.9472 C.3     1  UNL1        0.1481
     13 N         140.3460  139.1120  160.9279 N.am    1  UNL1       -0.2260
     14 C         141.8364  139.1158  161.0968 C.2     1  UNL1        0.2319
     15 O         142.8103  139.9464  160.3147 O.2     1  UNL1       -0.2745
     16 C         142.1821  138.1432  162.1853 C.3     1  UNL1        0.0953
     17 C         140.9052  137.5382  162.6890 C.3     1  UNL1        0.0953
     18 C         139.7705  138.1370  161.9119 C.2     1  UNL1        0.2319
     19 O         138.3156  137.8170  162.0879 O.2     1  UNL1       -0.2745
     20 C         139.8025  140.8354  168.1226 C.3     1  UNL1        0.0726
     21 C         139.1997  139.7211  167.3195 C.3     1  UNL1        0.0160
     22 C         139.7377  139.1711  166.0319 C.3     1  UNL1        0.0014
     23 C         138.8236  138.0712  165.5797 C.3     1  UNL1        0.0000
     24 C         137.7205  137.9413  166.5878 C.3     1  UNL1        0.0000
     25 C         137.9530  138.9610  167.6631 C.3     1  UNL1        0.0014
     26 C         142.2229  141.6326  167.6166 C.3     1  UNL1        0.0859
     27 C         143.1068  141.6812  166.4057 C.ar    1  UNL1       -0.0074
     28 C         143.2440  140.4723  165.5283 C.ar    1  UNL1       -0.0021
     29 C         144.1279  140.5209  164.3173 C.ar    1  UNL1        0.0111
     30 C         144.8746  141.7784  163.9838 C.ar    1  UNL1        0.0577
     31 CL        145.7584  141.8270  162.7728 Cl      1  UNL1       -0.0822
     32 C         144.7373  142.9873  164.8612 C.ar    1  UNL1        0.0111
     33 C         143.8534  142.9387  166.0721 C.ar    1  UNL1       -0.0021
     34 C         142.8216  141.4090  168.9736 C.3     1  UNL1        0.0622
     35 C         143.2929  142.5776  169.7873 C.2     1  UNL1        0.0520
     36 O         142.3024  143.4154  170.5403 O.co2   1  UNL1       -0.5491
     37 O         144.7547  142.9085  169.8479 O.co2   1  UNL1       -0.5491
@<TRIPOS>UNITY_ATOM_ATTR
36 1
charge -1
@<TRIPOS>BOND
     1     3     4    1
     2     4     5   ar
     3     5     6   ar
     4     6     2    1
     5     2     1    1
     6     1    20    1
     7    20    21    1
     8    21    22    1
     9    22    23    1
    10    23    24    1
    11    24    25    1
    12     1    26    1
    13    26    34    1
    14    34    35    1
    15    35    36   ar
    16    35    37   ar
    17    26    27    1
    18    27    28   ar
    19    28    29   ar
    20    29    30   ar
    21    30    31    1
    22    30    32   ar
    23    32    33   ar
    24     6     7   ar
    25     7     8   ar
    26     8     9   ar
    27     9    10    1
    28    10    11    1
    29    11    12    1
    30    12    13    1
    31    13    14   am
    32    14    15    2
    33    14    16    1
    34    16    17    1
    35    17    18    1
    36    18    19    2
    37     9     4   ar
    38    18    13   am
    39    25    21    1
    40    33    27   ar
@<TRIPOS>MOLECULE
*****
 37 40 0 0 0
SMALL
GASTEIGER

@<TRIPOS>ATOM
      1 N         142.8959  140.3413  166.4051 N.3     1  UNL1       -0.2663
      2 C         142.9888  141.8305  166.5587 C.3     1  UNL1        0.0994
      3 C         138.4133  143.8636  165.1688 C.3     1  UNL1        0.0342
      4 C         139.8956  143.7447  164.9719 C.ar    1  UNL1        0.0118
      5 C         140.7010  142.8470  165.8638 C.ar    1  UNL1       -0.0042
      6 C         142.1833  142.7281  165.6669 C.ar    1  UNL1       -0.0062
      7 C         142.8601  143.5070  164.5781 C.ar    1  UNL1        0.0002
      8 C         142.0546  144.4046  163.6862 C.ar    1  UNL1        0.0363
      9 C         140.5724  144.5235  163.8831 C.ar    1  UNL1        0.1346
     10 O         139.7669  145.4211  162.9913 O.3     1  UNL1       -0.4739
     11 C         140.3369  145.8877  161.6846 C.3     1  UNL1        0.2272
     12 C         140.2561  145.0062  160.4737 C.3     1  UNL1        0.1481
     13 N         140.2922  143.5146  160.6281 N.am    1  UNL1       -0.2260
     14 C         139.1273  142.6357  160.9754 C.2     1  UNL1        0.2319
     15 O         137.7218  143.0942  161.2292 O.2     1  UNL1       -0.2745
     16 C         139.6147  141.2179  161.0243 C.3     1  UNL1        0.0953
     17 C         141.0808  141.2205  160.7072 C.3     1  UNL1        0.0953
     18 C         141.4995  142.6399  160.4623 C.2     1  UNL1        0.2319
     19 O         142.8827  143.1034  160.1131 O.2     1  UNL1       -0.2745
     20 C         142.6459  139.4776  167.6057 C.3     1  UNL1        0.0726
     21 C         141.5145  139.7974  168.5372 C.3     1  UNL1        0.0160
     22 C         141.5910  139.8422  170.0345 C.3     1  UNL1        0.0014
     23 C         140.2317  140.2010  170.5576 C.3     1  UNL1        0.0000
     24 C         139.3151  140.3779  169.3835 C.3     1  UNL1        0.0000
     25 C         140.1079  140.1284  168.1348 C.3     1  UNL1        0.0014
     26 C         143.0530  139.7157  165.0508 C.3     1  UNL1        0.0859
     27 C         141.8487  139.2081  164.3148 C.ar    1  UNL1       -0.0074
     28 C         142.0177  138.2690  163.1574 C.ar    1  UNL1       -0.0021
     29 C         140.8133  137.7613  162.4214 C.ar    1  UNL1        0.0111
     30 C         139.4398  138.1928  162.8429 C.ar    1  UNL1        0.0577
     31 CL        138.2354  137.6851  162.1069 Cl      1  UNL1       -0.0822
     32 C         139.2708  139.1319  164.0002 C.ar    1  UNL1        0.0111
     33 C         140.4753  139.6395  164.7362 C.ar    1  UNL1       -0.0021
     34 C         144.4146  139.5979  164.4325 C.3     1  UNL1        0.0622
     35 C         144.8977  140.6481  163.4767 C.2     1  UNL1        0.0520
     36 O         145.8833  141.6822  163.9341 O.co2   1  UNL1       -0.5491
     37 O         144.3953  140.6642  162.0634 O.co2   1  UNL1       -0.5491
@<TRIPOS>UNITY_ATOM_ATTR
36 1
charge -1
@<TRIPOS>BOND
     1     3     4    1
     2     4     5   ar
     3     5     6   ar
     4     6     2    1
     5     2     1    1
     6     1    20    1
     7    20    21    1
     8    21    22    1
     9    22    23    1
    10    23    24    1
    11    24    25    1
    12     1    26    1
    13    26    34    1
    14    34    35    1
    15    35    36   ar
    16    35    37   ar
    17    26    27    1
    18    27    28   ar
    19    28    29   ar
    20    29    30   ar
    21    30    31    1
    22    30    32   ar
    23    32    33   ar
    24     6     7   ar
    25     7     8   ar
    26     8     9   ar
    27     9    10    1
    28    10    11    1
    29    11    12    1
    30    12    13    1
    31    13    14   am
    32    14    15    2
    33    14    16    1
    34    16    17    1
    35    17    18    1
    36    18    19    2
    37     9     4   ar
    38    18    13   am
    39    25    21    1
    40    33    27   ar
@<TRIPOS>MOLECULE
*****
 37 40 0 0 0
SMALL
GASTEIGER

@<TRIPOS>ATOM
      1 N         141.4212  141.1139  162.8244 N.3     1  UNL1       -0.2663
      2 C         142.7469  140.9673  163.5106 C.3     1  UNL1        0.0994
      3 C         144.5008  137.3405  166.7924 C.3     1  UNL1        0.0342
      4 C         143.6928  138.5776  166.5347 C.ar    1  UNL1        0.0118
      5 C         143.6239  139.1539  165.1515 C.ar    1  UNL1       -0.0042
      6 C         142.8158  140.3911  164.8938 C.ar    1  UNL1       -0.0062
      7 C         142.0766  141.0520  166.0193 C.ar    1  UNL1        0.0002
      8 C         142.1455  140.4757  167.4025 C.ar    1  UNL1        0.0363
      9 C         142.9536  139.2386  167.6602 C.ar    1  UNL1        0.1346
     10 O         143.0225  138.6623  169.0433 O.3     1  UNL1       -0.4739
     11 C         142.0652  139.1301  170.0993 C.3     1  UNL1        0.2272
     12 C         142.3708  140.3644  170.8949 C.3     1  UNL1        0.1481
     13 N         141.6636  141.6504  170.5851 N.am    1  UNL1       -0.2260
     14 C         140.1782  141.8415  170.4997 C.2     1  UNL1        0.2319
     15 O         139.1393  140.7800  170.7090 O.2     1  UNL1       -0.2745
     16 C         139.9142  143.2805  170.1682 C.3     1  UNL1        0.0953
     17 C         141.2365  143.9787  170.0487 C.3     1  UNL1        0.0953
     18 C         142.3176  142.9713  170.3064 C.2     1  UNL1        0.2319
     19 O         143.7936  143.2379  170.2885 O.2     1  UNL1       -0.2745
     20 C         140.9690  142.4619  162.3466 C.3     1  UNL1        0.0726
     21 C         139.9161  143.2127  163.1067 C.3     1  UNL1        0.0160
     22 C         138.5202  143.4940  162.6353 C.3     1  UNL1        0.0014
     23 C         137.8156  144.2691  163.7090 C.3     1  UNL1        0.0000
     24 C         138.7761  144.4670  164.8440 C.3     1  UNL1        0.0000
     25 C         140.0743  143.8140  164.4718 C.3     1  UNL1        0.0014
     26 C         140.5476  139.9124  162.6159 C.3     1  UNL1        0.0859
     27 C         139.7420  139.3640  163.7561 C.ar    1  UNL1       -0.0074
     28 C         139.8178  137.9046  164.0944 C.ar    1  UNL1       -0.0021
     29 C         139.0122  137.3561  165.2346 C.ar    1  UNL1        0.0111
     30 C         138.1306  138.2671  166.0366 C.ar    1  UNL1        0.0577
     31 CL        137.3250  137.7187  167.1768 Cl      1  UNL1       -0.0822
     32 C         138.0548  139.7265  165.6983 C.ar    1  UNL1        0.0111
     33 C         138.8605  140.2749  164.5580 C.ar    1  UNL1       -0.0021
     34 C         140.4798  139.2594  161.2672 C.3     1  UNL1        0.0622
     35 C         141.6497  138.4725  160.7552 C.2     1  UNL1        0.0520
     36 O         141.8788  138.3446  159.2784 O.co2   1  UNL1       -0.5491
     37 O         142.5903  137.8136  161.7201 O.co2   1  UNL1       -0.5491
@<TRIPOS>UNITY_ATOM_ATTR
36 1
charge -1
@<TRIPOS>BOND
     1     3     4    1
     2     4     5   ar
     3     5     6   ar
     4     6     2    1
     5     2     1    1
     6     1    20    1
     7    20    21    1
     8    21    22    1
     9    22    23    1
    10    23    24    1
    11    24    25    1
    12     1    26    1
    13    26    34    1
    14    34    35    1
    15    35    36   ar
    16    35    37   ar
    17    26    27    1
    18    27    28   ar
    19    28    29   ar
    20    29    30   ar
    21    30    31    1
    22    30    32   ar
    23    32    33   ar
    24     6     7   ar
    25     7     8   ar
    26     8     9   ar
    27     9    10    1
    28    10    11    1
    29    11    12    1
    30    12    13    1
    31    13    14   am
    32    14    15    2
    33    14    16    1
    34    16    17    1
    35    17    18    1
    36    18    19    2
    37     9     4   ar
    38    18    13   am
    39    25    21    1
    40    33    27   ar
@<TRIPOS>MOLECULE
*****
 37 40 0 0 0
SMALL
GASTEIGER

@<TRIPOS>ATOM
      1 N         140.6982  141.0633  167.6105 N.3     1  UNL1       -0.2663
      2 C         139.5534  140.1218  167.3804 C.3     1  UNL1        0.0994
      3 C         137.3162  141.2038  162.8170 C.3     1  UNL1        0.0342
      4 C         138.0681  140.2549  163.7026 C.ar    1  UNL1        0.0118
      5 C         138.4348  140.6628  165.0988 C.ar    1  UNL1       -0.0042
      6 C         139.1867  139.7139  165.9843 C.ar    1  UNL1       -0.0062
      7 C         139.5720  138.3571  165.4737 C.ar    1  UNL1        0.0002
      8 C         139.2053  137.9492  164.0776 C.ar    1  UNL1        0.0363
      9 C         138.4534  138.8981  163.1921 C.ar    1  UNL1        0.1346
     10 O         138.0867  138.4902  161.7960 O.3     1  UNL1       -0.4739
     11 C         139.1474  138.0024  160.8541 C.3     1  UNL1        0.2272
     12 C         139.5087  138.8146  159.6458 C.3     1  UNL1        0.1481
     13 N         139.3235  140.3030  159.6599 N.am    1  UNL1       -0.2260
     14 C         140.1051  141.2810  160.4862 C.2     1  UNL1        0.2319
     15 O         141.2091  140.9422  161.4435 O.2     1  UNL1       -0.2745
     16 C         139.5888  142.6573  160.1872 C.3     1  UNL1        0.0953
     17 C         138.4881  142.5299  159.1760 C.3     1  UNL1        0.0953
     18 C         138.3242  141.0749  158.8502 C.2     1  UNL1        0.2319
     19 O         137.3347  140.4937  157.8842 O.2     1  UNL1       -0.2745
     20 C         142.0830  140.5245  167.8150 C.3     1  UNL1        0.0726
     21 C         142.8948  140.0755  166.6363 C.3     1  UNL1        0.0160
     22 C         143.4831  140.9644  165.5809 C.3     1  UNL1        0.0014
     23 C         144.2127  140.0971  164.5983 C.3     1  UNL1        0.0000
     24 C         144.0754  138.6722  165.0465 C.3     1  UNL1        0.0000
     25 C         143.2609  138.6589  166.3060 C.3     1  UNL1        0.0014
     26 C         140.4581  142.5438  167.6360 C.3     1  UNL1        0.0859
     27 C         140.2046  143.2847  166.3566 C.ar    1  UNL1       -0.0074
     28 C         138.9737  144.1293  166.2103 C.ar    1  UNL1       -0.0021
     29 C         138.7201  144.8701  164.9310 C.ar    1  UNL1        0.0111
     30 C         139.6975  144.7664  163.7978 C.ar    1  UNL1        0.0577
     31 CL        139.4440  145.5072  162.5184 Cl      1  UNL1       -0.0822
     32 C         140.9285  143.9217  163.9441 C.ar    1  UNL1        0.0111
     33 C         141.1820  143.1809  165.2236 C.ar    1  UNL1       -0.0021
     34 C         140.4716  143.2834  168.9409 C.3     1  UNL1        0.0622
     35 C         140.2921  142.5356  170.2287 C.2     1  UNL1        0.0520
     36 O         141.3958  142.5151  171.2442 O.co2   1  UNL1       -0.5491
     37 O         139.0087  141.8083  170.5011 O.co2   1  UNL1       -0.5491
@<TRIPOS>UNITY_ATOM_ATTR
36 1
charge -1
@<TRIPOS>BOND
     1     3     4    1
     2     4     5   ar
     3     5     6   ar
     4     6     2    1
     5     2     1    1
     6     1    20    1
     7    20    21    1
     8    21    22    1
     9    22    23    1
    10    23    24    1
    11    24    25    1
    12     1    26    1
    13    26    34    1
    14    34    35    1
    15    35    36   ar
    16    35    37   ar
    17    26    27    1
    18    27    28   ar
    19    28    29   ar
    20    29    30   ar
    21    30    31    1
    22    30    32   ar
    23    32    33   ar
    24     6     7   ar
    25     7     8   ar
    26     8     9   ar
    27     9    10    1
    28    10    11    1
    29    11    12    1
    30    12    13    1
    31    13    14   am
    32    14    15    2
    33    14    16    1
    34    16    17    1
    35    17    18    1
    36    18    19    2
    37     9     4   ar
    38    18    13   am
    39    25    21    1
    40    33    27   ar
@<TRIPOS>MOLECULE
*****
 37 40 0 0 0
SMALL
GASTEIGER

@<TRIPOS>ATOM
      1 N         140.4788  141.6660  166.9976 N.3     1  UNL1       -0.2663
      2 C         139.9148  143.0418  166.8002 C.3     1  UNL1        0.0994
      3 C         142.9060  145.0012  163.0300 C.3     1  UNL1        0.0342
      4 C         141.5449  144.7037  163.5860 C.ar    1  UNL1        0.0118
      5 C         141.4104  144.0215  164.9152 C.ar    1  UNL1       -0.0042
      6 C         140.0494  143.7240  165.4711 C.ar    1  UNL1       -0.0062
      7 C         138.8229  144.1087  164.6979 C.ar    1  UNL1        0.0002
      8 C         138.9574  144.7908  163.3688 C.ar    1  UNL1        0.0363
      9 C         140.3185  145.0883  162.8129 C.ar    1  UNL1        0.1346
     10 O         140.4530  145.7705  161.4838 O.3     1  UNL1       -0.4739
     11 C         140.5890  144.9547  160.2324 C.3     1  UNL1        0.2272
     12 C         140.5745  143.4567  160.3083 C.3     1  UNL1        0.1481
     13 N         141.8470  142.7066  160.5689 N.am    1  UNL1       -0.2260
     14 C         143.1278  142.8497  159.8014 C.2     1  UNL1        0.2319
     15 O         143.3609  143.7680  158.6386 O.2     1  UNL1       -0.2745
     16 C         144.1346  141.9132  160.4010 C.3     1  UNL1        0.0953
     17 C         143.4760  141.1913  161.5391 C.3     1  UNL1        0.0953
     18 C         142.0622  141.6816  161.6429 C.2     1  UNL1        0.2319
     19 O         141.0426  141.2269  162.6446 O.2     1  UNL1       -0.2745
     20 C         141.9449  141.4868  167.2591 C.3     1  UNL1        0.0726
     21 C         142.6874  140.3510  166.6199 C.3     1  UNL1        0.0160
     22 C         143.2880  140.3526  165.2454 C.3     1  UNL1        0.0014
     23 C         143.9315  139.0167  165.0190 C.3     1  UNL1        0.0000
     24 C         143.7287  138.1894  166.2537 C.3     1  UNL1        0.0000
     25 C         142.9598  139.0140  167.2431 C.3     1  UNL1        0.0014
     26 C         139.5766  140.4693  166.9335 C.3     1  UNL1        0.0859
     27 C         139.2282  139.8629  165.6065 C.ar    1  UNL1       -0.0074
     28 C         139.8733  138.5790  165.1760 C.ar    1  UNL1       -0.0021
     29 C         139.5248  137.9727  163.8490 C.ar    1  UNL1        0.0111
     30 C         138.5312  138.6503  162.9525 C.ar    1  UNL1        0.0577
     31 CL        138.1827  138.0439  161.6255 Cl      1  UNL1       -0.0822
     32 C         137.8861  139.9342  163.3830 C.ar    1  UNL1        0.0111
     33 C         138.2346  140.5405  164.7101 C.ar    1  UNL1       -0.0021
     34 C         139.0229  139.8790  168.1964 C.3     1  UNL1        0.0622
     35 C         139.6217  140.2467  169.5216 C.2     1  UNL1        0.0520
     36 O         139.0470  141.3826  170.3149 O.co2   1  UNL1       -0.5491
     37 O         140.7951  139.4785  170.0535 O.co2   1  UNL1       -0.5491
@<TRIPOS>UNITY_ATOM_ATTR
36 1
charge -1
@<TRIPOS>BOND
     1     3     4    1
     2     4     5   ar
     3     5     6   ar
     4     6     2    1
     5     2     1    1
     6     1    20    1
     7    20    21    1
     8    21    22    1
     9    22    23    1
    10    23    24    1
    11    24    25    1
    12     1    26    1
    13    26    34    1
    14    34    35    1
    15    35    36   ar
    16    35    37   ar
    17    26    27    1
    18    27    28   ar
    19    28    29   ar
    20    29    30   ar
    21    30    31    1
    22    30    32   ar
    23    32    33   ar
    24     6     7   ar
    25     7     8   ar
    26     8     9   ar
    27     9    10    1
    28    10    11    1
    29    11    12    1
    30    12    13    1
    31    13    14   am
    32    14    15    2
    33    14    16    1
    34    16    17    1
    35    17    18    1
    36    18    19    2
    37     9     4   ar
    38    18    13   am
    39    25    21    1
    40    33    27   ar
@<TRIPOS>MOLECULE
*****
 37 40 0 0 0
SMALL
GASTEIGER

@<TRIPOS>ATOM
      1 N         140.6642  141.7678  167.4507 N.3     1  UNL1       -0.2663
      2 C         139.7332  140.5930  167.3947 C.3     1  UNL1        0.0994
      3 C         137.4283  141.1996  162.7773 C.3     1  UNL1        0.0342
      4 C         138.1607  140.3347  163.7600 C.ar    1  UNL1        0.0118
      5 C         138.5808  140.8963  165.0860 C.ar    1  UNL1       -0.0042
      6 C         139.3132  140.0315  166.0687 C.ar    1  UNL1       -0.0062
      7 C         139.6255  138.6051  165.7253 C.ar    1  UNL1        0.0002
      8 C         139.2055  138.0436  164.3994 C.ar    1  UNL1        0.0363
      9 C         138.4731  138.9084  163.4167 C.ar    1  UNL1        0.1346
     10 O         138.0531  138.3469  162.0907 O.3     1  UNL1       -0.4739
     11 C         139.0795  138.0811  161.0297 C.3     1  UNL1        0.2272
     12 C         139.4597  139.1654  160.0655 C.3     1  UNL1        0.1481
     13 N         140.2654  140.3395  160.5369 N.am    1  UNL1       -0.2260
     14 C         141.3804  140.2982  161.5395 C.2     1  UNL1        0.2319
     15 O         141.8854  139.0756  162.2467 O.2     1  UNL1       -0.2745
     16 C         141.9018  141.6943  161.7107 C.3     1  UNL1        0.0953
     17 C         141.1090  142.5984  160.8139 C.3     1  UNL1        0.0953
     18 C         140.0977  141.7611  160.0885 C.2     1  UNL1        0.2319
     19 O         139.0947  142.2581  159.0900 O.2     1  UNL1       -0.2745
     20 C         140.1220  143.1610  167.3285 C.3     1  UNL1        0.0726
     21 C         139.8560  143.7461  165.9732 C.3     1  UNL1        0.0160
     22 C         140.7572  143.6479  164.7781 C.3     1  UNL1        0.0014
     23 C         140.1004  144.3733  163.6413 C.3     1  UNL1        0.0000
     24 C         138.7932  144.9199  164.1338 C.3     1  UNL1        0.0000
     25 C         138.6422  144.5323  165.5750 C.3     1  UNL1        0.0014
     26 C         142.1375  141.5493  167.6289 C.3     1  UNL1        0.0859
     27 C         143.0527  141.6030  166.4417 C.ar    1  UNL1       -0.0074
     28 C         143.7836  142.8715  166.1149 C.ar    1  UNL1       -0.0021
     29 C         144.6988  142.9252  164.9277 C.ar    1  UNL1        0.0111
     30 C         144.8831  141.7105  164.0672 C.ar    1  UNL1        0.0577
     31 CL        145.7983  141.7642  162.8800 Cl      1  UNL1       -0.0822
     32 C         144.1522  140.4420  164.3939 C.ar    1  UNL1        0.0111
     33 C         143.2370  140.3883  165.5812 C.ar    1  UNL1       -0.0021
     34 C         142.6956  141.2771  168.9944 C.3     1  UNL1        0.0622
     35 C         143.1918  142.4111  169.8415 C.2     1  UNL1        0.0520
     36 O         142.2512  143.1221  170.7686 O.co2   1  UNL1       -0.5491
     37 O         144.6287  142.8341  169.7616 O.co2   1  UNL1       -0.5491
@<TRIPOS>UNITY_ATOM_ATTR
36 1
charge -1
@<TRIPOS>BOND
     1     3     4    1
     2     4     5   ar
     3     5     6   ar
     4     6     2    1
     5     2     1    1
     6     1    20    1
     7    20    21    1
     8    21    22    1
     9    22    23    1
    10    23    24    1
    11    24    25    1
    12     1    26    1
    13    26    34    1
    14    34    35    1
    15    35    36   ar
    16    35    37   ar
    17    26    27    1
    18    27    28   ar
    19    28    29   ar
    20    29    30   ar
    21    30    31    1
    22    30    32   ar
    23    32    33   ar
    24     6     7   ar
    25     7     8   ar
    26     8     9   ar
    27     9    10    1
    28    10    11    1
    29    11    12    1
    30    12    13    1
    31    13    14   am
    32    14    15    2
    33    14    16    1
    34    16    17    1
    35    17    18    1
    36    18    19    2
    37     9     4   ar
    38    18    13   am
    39    25    21    1
    40    33    27   ar
@<TRIPOS>MOLECULE
*****
 37 40 0 0 0
SMALL
GASTEIGER

@<TRIPOS>ATOM
      1 N         139.5434  139.7365  166.0336 N.3     1  UNL1       -0.2663
      2 C         138.3184  140.3396  165.4127 C.3     1  UNL1        0.0994
      3 C         138.2380  142.4602  160.6697 C.3     1  UNL1        0.0342
      4 C         138.4018  142.6030  162.1539 C.ar    1  UNL1        0.0118
      5 C         138.2782  141.3998  163.0412 C.ar    1  UNL1       -0.0042
      6 C         138.4420  141.5426  164.5254 C.ar    1  UNL1       -0.0062
      7 C         138.7294  142.8884  165.1222 C.ar    1  UNL1        0.0002
      8 C         138.8530  144.0915  164.2349 C.ar    1  UNL1        0.0363
      9 C         138.6892  143.9487  162.7507 C.ar    1  UNL1        0.1346
     10 O         138.8128  145.1517  161.8634 O.3     1  UNL1       -0.4739
     11 C         140.1677  145.7061  161.5358 C.3     1  UNL1        0.2272
     12 C         140.8477  145.3176  160.2565 C.3     1  UNL1        0.1481
     13 N         141.7066  144.0889  160.2070 N.am    1  UNL1       -0.2260
     14 C         141.5751  142.9601  159.2279 C.2     1  UNL1        0.2319
     15 O         140.5616  142.8619  158.1264 O.2     1  UNL1       -0.2745
     16 C         142.6352  141.9467  159.5436 C.3     1  UNL1        0.0953
     17 C         143.4218  142.4493  160.7178 C.3     1  UNL1        0.0953
     18 C         142.8479  143.7731  161.1278 C.2     1  UNL1        0.2319
     19 O         143.3306  144.6307  162.2598 O.2     1  UNL1       -0.2745
     20 C         139.7656  139.8454  167.5130 C.3     1  UNL1        0.0726
     21 C         140.9110  140.6571  168.0417 C.3     1  UNL1        0.0160
     22 C         142.1942  140.1140  168.5971 C.3     1  UNL1        0.0014
     23 C         143.0505  141.2756  169.0064 C.3     1  UNL1        0.0000
     24 C         142.2965  142.5365  168.7040 C.3     1  UNL1        0.0000
     25 C         140.9742  142.1543  168.1078 C.3     1  UNL1        0.0014
     26 C         140.5464  139.0244  165.1750 C.3     1  UNL1        0.0859
     27 C         141.8734  139.6613  164.8866 C.ar    1  UNL1       -0.0074
     28 C         143.1183  138.8248  164.8667 C.ar    1  UNL1       -0.0021
     29 C         144.4454  139.4618  164.5783 C.ar    1  UNL1        0.0111
     30 C         144.5275  140.9353  164.3097 C.ar    1  UNL1        0.0577
     31 CL        145.8546  141.5722  164.0212 Cl      1  UNL1       -0.0822
     32 C         143.2826  141.7718  164.3295 C.ar    1  UNL1        0.0111
     33 C         141.9555  141.1348  164.6180 C.ar    1  UNL1       -0.0021
     34 C         140.2222  137.6754  164.6048 C.3     1  UNL1        0.0622
     35 C         139.9197  137.5321  163.1427 C.2     1  UNL1        0.0520
     36 O         138.5098  137.6747  162.6511 O.co2   1  UNL1       -0.5491
     37 O         141.0271  137.2462  162.1722 O.co2   1  UNL1       -0.5491
@<TRIPOS>UNITY_ATOM_ATTR
36 1
charge -1
@<TRIPOS>BOND
     1     3     4    1
     2     4     5   ar
     3     5     6   ar
     4     6     2    1
     5     2     1    1
     6     1    20    1
     7    20    21    1
     8    21    22    1
     9    22    23    1
    10    23    24    1
    11    24    25    1
    12     1    26    1
    13    26    34    1
    14    34    35    1
    15    35    36   ar
    16    35    37   ar
    17    26    27    1
    18    27    28   ar
    19    28    29   ar
    20    29    30   ar
    21    30    31    1
    22    30    32   ar
    23    32    33   ar
    24     6     7   ar
    25     7     8   ar
    26     8     9   ar
    27     9    10    1
    28    10    11    1
    29    11    12    1
    30    12    13    1
    31    13    14   am
    32    14    15    2
    33    14    16    1
    34    16    17    1
    35    17    18    1
    36    18    19    2
    37     9     4   ar
    38    18    13   am
    39    25    21    1
    40    33    27   ar
@<TRIPOS>MOLECULE
*****
 37 40 0 0 0
SMALL
GASTEIGER

@<TRIPOS>ATOM
      1 N         140.6498  141.1848  167.8229 N.3     1  UNL1       -0.2663
      2 C         139.5329  140.2225  167.5462 C.3     1  UNL1        0.0994
      3 C         137.3417  141.3121  162.9624 C.3     1  UNL1        0.0342
      4 C         138.1166  140.3764  163.8421 C.ar    1  UNL1        0.0118
      5 C         138.4373  140.7673  165.2543 C.ar    1  UNL1       -0.0042
      6 C         139.2123  139.8316  166.1340 C.ar    1  UNL1       -0.0062
      7 C         139.6665  138.5049  165.6014 C.ar    1  UNL1        0.0002
      8 C         139.3459  138.1140  164.1892 C.ar    1  UNL1        0.0363
      9 C         138.5709  139.0498  163.3096 C.ar    1  UNL1        0.1346
     10 O         138.2502  138.6589  161.8974 O.3     1  UNL1       -0.4739
     11 C         139.3201  138.0845  161.0168 C.3     1  UNL1        0.2272
     12 C         140.2053  138.9963  160.2199 C.3     1  UNL1        0.1481
     13 N         141.6571  139.1292  160.5729 N.am    1  UNL1       -0.2260
     14 C         142.2215  139.9643  161.6838 C.2     1  UNL1        0.2319
     15 O         141.4331  140.8131  162.6367 O.2     1  UNL1       -0.2745
     16 C         143.7126  139.8015  161.6746 C.3     1  UNL1        0.0953
     17 C         144.0698  138.8658  160.5579 C.3     1  UNL1        0.0953
     18 C         142.7995  138.4503  159.8771 C.2     1  UNL1        0.2319
     19 O         142.6905  137.5193  158.7060 O.2     1  UNL1       -0.2745
     20 C         142.0205  140.6696  168.1480 C.3     1  UNL1        0.0726
     21 C         142.7485  139.8021  167.1644 C.3     1  UNL1        0.0160
     22 C         143.3169  138.4417  167.4404 C.3     1  UNL1        0.0014
     23 C         143.9556  137.9414  166.1787 C.3     1  UNL1        0.0000
     24 C         143.7818  138.9927  165.1229 C.3     1  UNL1        0.0000
     25 C         143.0358  140.1426  165.7321 C.3     1  UNL1        0.0014
     26 C         140.3959  142.6624  167.7744 C.3     1  UNL1        0.0859
     27 C         140.1958  143.3461  166.4544 C.ar    1  UNL1       -0.0074
     28 C         141.2167  143.1901  165.3665 C.ar    1  UNL1       -0.0021
     29 C         141.0165  143.8738  164.0465 C.ar    1  UNL1        0.0111
     30 C         139.7954  144.7135  163.8143 C.ar    1  UNL1        0.0577
     31 CL        139.5952  145.3972  162.4943 Cl      1  UNL1       -0.0822
     32 C         138.7745  144.8695  164.9021 C.ar    1  UNL1        0.0111
     33 C         138.9747  144.1857  166.2222 C.ar    1  UNL1       -0.0021
     34 C         140.3422  143.4563  169.0460 C.3     1  UNL1        0.0622
     35 C         140.2429  142.7516  170.3664 C.2     1  UNL1        0.0520
     36 O         138.9546  142.1005  170.7740 O.co2   1  UNL1       -0.5491
     37 O         141.4320  142.6981  171.2792 O.co2   1  UNL1       -0.5491
@<TRIPOS>UNITY_ATOM_ATTR
36 1
charge -1
@<TRIPOS>BOND
     1     3     4    1
     2     4     5   ar
     3     5     6   ar
     4     6     2    1
     5     2     1    1
     6     1    20    1
     7    20    21    1
     8    21    22    1
     9    22    23    1
    10    23    24    1
    11    24    25    1
    12     1    26    1
    13    26    34    1
    14    34    35    1
    15    35    36   ar
    16    35    37   ar
    17    26    27    1
    18    27    28   ar
    19    28    29   ar
    20    29    30   ar
    21    30    31    1
    22    30    32   ar
    23    32    33   ar
    24     6     7   ar
    25     7     8   ar
    26     8     9   ar
    27     9    10    1
    28    10    11    1
    29    11    12    1
    30    12    13    1
    31    13    14   am
    32    14    15    2
    33    14    16    1
    34    16    17    1
    35    17    18    1
    36    18    19    2
    37     9     4   ar
    38    18    13   am
    39    25    21    1
    40    33    27   ar
@<TRIPOS>MOLECULE
*****
 37 40 0 0 0
SMALL
GASTEIGER

@<TRIPOS>ATOM
      1 N         141.5461  141.4247  162.9652 N.3     1  UNL1       -0.2663
      2 C         142.8559  141.0329  163.5823 C.3     1  UNL1        0.0994
      3 C         144.5612  137.3522  166.8295 C.3     1  UNL1        0.0342
      4 C         143.7394  138.5810  166.5753 C.ar    1  UNL1        0.0118
      5 C         143.7085  139.1925  165.2059 C.ar    1  UNL1       -0.0042
      6 C         142.8868  140.4214  164.9516 C.ar    1  UNL1       -0.0062
      7 C         142.0959  141.0387  166.0668 C.ar    1  UNL1        0.0002
      8 C         142.1268  140.4272  167.4361 C.ar    1  UNL1        0.0363
      9 C         142.9486  139.1984  167.6903 C.ar    1  UNL1        0.1346
     10 O         142.9794  138.5868  169.0596 O.3     1  UNL1       -0.4739
     11 C         142.0589  139.0956  170.1292 C.3     1  UNL1        0.2272
     12 C         142.4098  140.3388  170.8916 C.3     1  UNL1        0.1481
     13 N         141.7001  141.6264  170.5941 N.am    1  UNL1       -0.2260
     14 C         142.3518  142.9487  170.3172 C.2     1  UNL1        0.2319
     15 O         143.8276  143.2157  170.2892 O.2     1  UNL1       -0.2745
     16 C         141.2686  143.9573  170.0732 C.3     1  UNL1        0.0953
     17 C         139.9474  143.2582  170.1993 C.3     1  UNL1        0.0953
     18 C         140.2141  141.8177  170.5212 C.2     1  UNL1        0.2319
     19 O         139.1770  140.7550  170.7331 O.2     1  UNL1       -0.2745
     20 C         141.2432  142.8702  162.7027 C.3     1  UNL1        0.0726
     21 C         140.0960  143.5354  163.4035 C.3     1  UNL1        0.0160
     22 C         138.7650  143.8674  162.7966 C.3     1  UNL1        0.0014
     23 C         137.9246  144.5227  163.8522 C.3     1  UNL1        0.0000
     24 C         138.7363  144.5958  165.1116 C.3     1  UNL1        0.0000
     25 C         140.0782  143.9856  164.8342 C.3     1  UNL1        0.0014
     26 C         140.5390  140.3710  162.6108 C.3     1  UNL1        0.0859
     27 C         139.7772  139.6669  163.6942 C.ar    1  UNL1       -0.0074
     28 C         138.7976  140.4274  164.5380 C.ar    1  UNL1       -0.0021
     29 C         138.0358  139.7233  165.6214 C.ar    1  UNL1        0.0111
     30 C         138.2536  138.2587  165.8612 C.ar    1  UNL1        0.0577
     31 CL        137.4918  137.5546  166.9446 Cl      1  UNL1       -0.0822
     32 C         139.2332  137.4982  165.0174 C.ar    1  UNL1        0.0111
     33 C         139.9950  138.2023  163.9339 C.ar    1  UNL1       -0.0021
     34 C         140.2937  140.0215  161.1728 C.3     1  UNL1        0.0622
     35 C         138.8934  139.9934  160.6361 C.2     1  UNL1        0.0520
     36 O         137.9016  141.0303  161.0736 O.co2   1  UNL1       -0.5491
     37 O         138.4847  138.9286  159.6619 O.co2   1  UNL1       -0.5491
@<TRIPOS>UNITY_ATOM_ATTR
36 1
charge -1
@<TRIPOS>BOND
     1     3     4    1
     2     4     5   ar
     3     5     6   ar
     4     6     2    1
     5     2     1    1
     6     1    20    1
     7    20    21    1
     8    21    22    1
     9    22    23    1
    10    23    24    1
    11    24    25    1
    12     1    26    1
    13    26    34    1
    14    34    35    1
    15    35    36   ar
    16    35    37   ar
    17    26    27    1
    18    27    28   ar
    19    28    29   ar
    20    29    30   ar
    21    30    31    1
    22    30    32   ar
    23    32    33   ar
    24     6     7   ar
    25     7     8   ar
    26     8     9   ar
    27     9    10    1
    28    10    11    1
    29    11    12    1
    30    12    13    1
    31    13    14   am
    32    14    15    2
    33    14    16    1
    34    16    17    1
    35    17    18    1
    36    18    19    2
    37     9     4   ar
    38    18    13   am
    39    25    21    1
    40    33    27   ar
