@<TRIPOS>MOLECULE
*****
 26 27 0 0 0
SMALL
GASTEIGER

@<TRIPOS>ATOM
      1 C         140.4739  143.1032  168.4799 C.1     1  UNL1       -0.0724
      2 C         140.1806  142.7223  167.0590 C.1     1  UNL1       -0.0817
      3 C         140.7671  143.4841  169.9007 C.3     1  UNL1        0.1498
      4 N         141.8263  142.7520  170.6701 N.3     1  UNL1       -0.2618
      5 C         143.2299  143.2802  170.7027 C.3     1  UNL1        0.0730
      6 C         144.3091  142.5904  169.9219 C.3     1  UNL1        0.0188
      7 C         141.4820  141.4917  171.4071 C.3     1  UNL1        0.0730
      8 C         140.4703  140.5422  170.8372 C.3     1  UNL1        0.0174
      9 C         140.7833  139.7742  169.5873 C.3     1  UNL1        0.0014
     10 C         142.2092  139.5789  169.1643 C.3     1  UNL1        0.0000
     11 C         142.6446  139.9816  167.7865 C.3     1  UNL1        0.0000
     12 C         143.6563  138.6325  165.8100 C.3     1  UNL1        0.0000
     13 C         142.4711  139.0327  166.6378 C.3     1  UNL1        0.0000
     14 C         139.8873  142.3414  165.6381 C.3     1  UNL1        0.1085
     15 C         139.6590  140.9029  165.2791 C.ar    1  UNL1       -0.0064
     16 C         140.2018  140.3558  163.9923 C.ar    1  UNL1       -0.0030
     17 C         139.9734  138.9174  163.6333 C.ar    1  UNL1       -0.0003
     18 C         139.2023  138.0262  164.5612 C.ar    1  UNL1       -0.0000
     19 C         138.6595  138.5733  165.8481 C.ar    1  UNL1       -0.0003
     20 C         138.8879  140.0117  166.2070 C.ar    1  UNL1       -0.0030
     21 C         139.8224  143.3988  164.5762 C.ar    1  UNL1       -0.0064
     22 C         138.5205  143.6971  163.8935 C.ar    1  UNL1       -0.0030
     23 C         138.4556  144.7546  162.8316 C.ar    1  UNL1       -0.0003
     24 C         139.6926  145.5137  162.4525 C.ar    1  UNL1       -0.0000
     25 C         140.9944  145.2154  163.1352 C.ar    1  UNL1       -0.0003
     26 C         141.0594  144.1580  164.1971 C.ar    1  UNL1       -0.0030
@<TRIPOS>BOND
     1    12    13    1
     2    13    11    1
     3    11    10    1
     4    10     9    1
     5     9     8    1
     6     8     7    1
     7     7     4    1
     8     4     5    1
     9     5     6    1
    10     4     3    1
    11     3     1    1
    12     1     2    3
    13     2    14    1
    14    14    15    1
    15    15    16   ar
    16    16    17   ar
    17    17    18   ar
    18    18    19   ar
    19    19    20   ar
    20    14    21    1
    21    21    22   ar
    22    22    23   ar
    23    23    24   ar
    24    24    25   ar
    25    25    26   ar
    26    20    15   ar
    27    26    21   ar
@<TRIPOS>MOLECULE
*****
 26 27 0 0 0
SMALL
GASTEIGER

@<TRIPOS>ATOM
      1 C         141.5744  143.9458  163.9675 C.1     1  UNL1       -0.0724
      2 C         141.3616  142.9571  165.0753 C.1     1  UNL1       -0.0817
      3 C         141.7872  144.9345  162.8597 C.3     1  UNL1        0.1498
      4 N         140.6804  145.2234  161.8894 N.3     1  UNL1       -0.2618
      5 C         140.9247  145.1003  160.4146 C.3     1  UNL1        0.0730
      6 C         140.5841  143.8251  159.7018 C.3     1  UNL1        0.0188
      7 C         139.3292  145.6355  162.3940 C.3     1  UNL1        0.0730
      8 C         138.2775  144.5982  162.6546 C.3     1  UNL1        0.0174
      9 C         137.9585  144.1908  164.0625 C.3     1  UNL1        0.0014
     10 C         137.7470  142.7434  164.3948 C.3     1  UNL1        0.0000
     11 C         137.3066  141.7855  163.3279 C.3     1  UNL1        0.0000
     12 C         139.5346  141.1465  162.1542 C.3     1  UNL1        0.0000
     13 C         138.2545  140.7391  162.8217 C.3     1  UNL1        0.0000
     14 C         141.1488  141.9684  166.1831 C.3     1  UNL1        0.1085
     15 C         140.4893  140.6518  165.8969 C.ar    1  UNL1       -0.0064
     16 C         141.1742  139.6443  165.0219 C.ar    1  UNL1       -0.0030
     17 C         140.5147  138.3279  164.7358 C.ar    1  UNL1       -0.0003
     18 C         139.1702  138.0189  165.3247 C.ar    1  UNL1       -0.0000
     19 C         138.4852  139.0264  166.1997 C.ar    1  UNL1       -0.0003
     20 C         139.1447  140.3429  166.4858 C.ar    1  UNL1       -0.0030
     21 C         141.5955  142.2962  167.5769 C.ar    1  UNL1       -0.0064
     22 C         140.6430  142.9459  168.5365 C.ar    1  UNL1       -0.0030
     23 C         141.0898  143.2737  169.9304 C.ar    1  UNL1       -0.0003
     24 C         142.4890  142.9518  170.3648 C.ar    1  UNL1       -0.0000
     25 C         143.4414  142.3021  169.4052 C.ar    1  UNL1       -0.0003
     26 C         142.9947  141.9743  168.0114 C.ar    1  UNL1       -0.0030
@<TRIPOS>BOND
     1    12    13    1
     2    13    11    1
     3    11    10    1
     4    10     9    1
     5     9     8    1
     6     8     7    1
     7     7     4    1
     8     4     5    1
     9     5     6    1
    10     4     3    1
    11     3     1    1
    12     1     2    3
    13     2    14    1
    14    14    15    1
    15    15    16   ar
    16    16    17   ar
    17    17    18   ar
    18    18    19   ar
    19    19    20   ar
    20    14    21    1
    21    21    22   ar
    22    22    23   ar
    23    23    24   ar
    24    24    25   ar
    25    25    26   ar
    26    20    15   ar
    27    26    21   ar
@<TRIPOS>MOLECULE
*****
 26 27 0 0 0
SMALL
GASTEIGER

@<TRIPOS>ATOM
      1 C         139.4947  140.3224  165.1293 C.1     1  UNL1       -0.0724
      2 C         140.7511  140.9144  165.6960 C.1     1  UNL1       -0.0817
      3 C         138.2384  139.7304  164.5626 C.3     1  UNL1        0.1498
      4 N         137.7822  140.1154  163.1866 N.3     1  UNL1       -0.2618
      5 C         138.0223  139.1903  162.0305 C.3     1  UNL1        0.0730
      6 C         138.9684  138.0356  162.1779 C.3     1  UNL1        0.0188
      7 C         137.0858  141.4257  162.9665 C.3     1  UNL1        0.0730
      8 C         137.8489  142.7109  163.0918 C.3     1  UNL1        0.0174
      9 C         137.8554  143.4554  164.3939 C.3     1  UNL1        0.0014
     10 C         138.7547  144.6423  164.5748 C.3     1  UNL1        0.0000
     11 C         140.2253  144.4427  164.7929 C.3     1  UNL1        0.0000
     12 C         141.4073  143.4196  162.7178 C.3     1  UNL1        0.0000
     13 C         141.1791  144.5780  163.6432 C.3     1  UNL1        0.0000
     14 C         142.0074  141.5064  166.2627 C.3     1  UNL1        0.1085
     15 C         142.0005  142.1045  167.6383 C.ar    1  UNL1       -0.0064
     16 C         143.2259  142.0194  168.4992 C.ar    1  UNL1       -0.0030
     17 C         143.2190  142.6174  169.8748 C.ar    1  UNL1       -0.0003
     18 C         141.9867  143.3005  170.3895 C.ar    1  UNL1       -0.0000
     19 C         140.7614  143.3856  169.5286 C.ar    1  UNL1       -0.0003
     20 C         140.7683  142.7876  168.1530 C.ar    1  UNL1       -0.0030
     21 C         143.2706  141.5004  165.4538 C.ar    1  UNL1       -0.0064
     22 C         143.9862  142.7880  165.1709 C.ar    1  UNL1       -0.0030
     23 C         145.2494  142.7820  164.3620 C.ar    1  UNL1       -0.0003
     24 C         145.7969  141.4884  163.8359 C.ar    1  UNL1       -0.0000
     25 C         145.0813  140.2008  164.1187 C.ar    1  UNL1       -0.0003
     26 C         143.8181  140.2068  164.9276 C.ar    1  UNL1       -0.0030
@<TRIPOS>BOND
     1    12    13    1
     2    13    11    1
     3    11    10    1
     4    10     9    1
     5     9     8    1
     6     8     7    1
     7     7     4    1
     8     4     5    1
     9     5     6    1
    10     4     3    1
    11     3     1    1
    12     1     2    3
    13     2    14    1
    14    14    15    1
    15    15    16   ar
    16    16    17   ar
    17    17    18   ar
    18    18    19   ar
    19    19    20   ar
    20    14    21    1
    21    21    22   ar
    22    22    23   ar
    23    23    24   ar
    24    24    25   ar
    25    25    26   ar
    26    20    15   ar
    27    26    21   ar
@<TRIPOS>MOLECULE
*****
 26 27 0 0 0
SMALL
GASTEIGER

@<TRIPOS>ATOM
      1 C         141.8218  143.6151  163.8542 C.1     1  UNL1       -0.0724
      2 C         141.4885  142.7231  165.0132 C.1     1  UNL1       -0.0817
      3 C         142.1550  144.5071  162.6952 C.3     1  UNL1        0.1498
      4 N         141.0712  144.9630  161.7638 N.3     1  UNL1       -0.2618
      5 C         141.2202  144.7630  160.2847 C.3     1  UNL1        0.0730
      6 C         140.2743  145.4397  159.3373 C.3     1  UNL1        0.0188
      7 C         139.8384  145.6190  162.3115 C.3     1  UNL1        0.0730
      8 C         138.6228  144.7949  162.6164 C.3     1  UNL1        0.0174
      9 C         138.2830  144.4570  164.0378 C.3     1  UNL1        0.0014
     10 C         137.8773  143.0590  164.4000 C.3     1  UNL1        0.0000
     11 C         137.4073  142.1144  163.3338 C.3     1  UNL1        0.0000
     12 C         139.5224  141.1466  162.1762 C.3     1  UNL1        0.0000
     13 C         138.2535  140.9374  162.9485 C.3     1  UNL1        0.0000
     14 C         141.1553  141.8311  166.1722 C.3     1  UNL1        0.1085
     15 C         141.5693  142.2194  167.5607 C.ar    1  UNL1       -0.0064
     16 C         140.6103  142.9510  168.4523 C.ar    1  UNL1       -0.0030
     17 C         141.0243  143.3392  169.8407 C.ar    1  UNL1       -0.0003
     18 C         142.3973  142.9958  170.3376 C.ar    1  UNL1       -0.0000
     19 C         143.3564  142.2642  169.4460 C.ar    1  UNL1       -0.0003
     20 C         142.9423  141.8760  168.0576 C.ar    1  UNL1       -0.0030
     21 C         140.4081  140.5509  165.9427 C.ar    1  UNL1       -0.0064
     22 C         139.0468  140.3591  166.5427 C.ar    1  UNL1       -0.0030
     23 C         138.2996  139.0788  166.3132 C.ar    1  UNL1       -0.0003
     24 C         138.9137  137.9903  165.4838 C.ar    1  UNL1       -0.0000
     25 C         140.2750  138.1821  164.8838 C.ar    1  UNL1       -0.0003
     26 C         141.0222  139.4623  165.1132 C.ar    1  UNL1       -0.0030
@<TRIPOS>BOND
     1    12    13    1
     2    13    11    1
     3    11    10    1
     4    10     9    1
     5     9     8    1
     6     8     7    1
     7     7     4    1
     8     4     5    1
     9     5     6    1
    10     4     3    1
    11     3     1    1
    12     1     2    3
    13     2    14    1
    14    14    15    1
    15    15    16   ar
    16    16    17   ar
    17    17    18   ar
    18    18    19   ar
    19    19    20   ar
    20    14    21    1
    21    21    22   ar
    22    22    23   ar
    23    23    24   ar
    24    24    25   ar
    25    25    26   ar
    26    20    15   ar
    27    26    21   ar
@<TRIPOS>MOLECULE
*****
 26 27 0 0 0
SMALL
GASTEIGER

@<TRIPOS>ATOM
      1 C         142.7082  140.1371  165.1523 C.1     1  UNL1       -0.0724
      2 C         141.5865  140.9499  165.7278 C.1     1  UNL1       -0.0817
      3 C         143.8299  139.3243  164.5769 C.3     1  UNL1        0.1498
      4 N         144.1079  139.3669  163.1035 N.3     1  UNL1       -0.2618
      5 C         144.7719  140.5689  162.5000 C.3     1  UNL1        0.0730
      6 C         145.5918  141.4840  163.3606 C.3     1  UNL1        0.0188
      7 C         143.7219  138.2074  162.2336 C.3     1  UNL1        0.0730
      8 C         142.3035  138.0580  161.7689 C.3     1  UNL1        0.0174
      9 C         141.2461  137.5924  162.7255 C.3     1  UNL1        0.0014
     10 C         140.0846  138.4840  163.0516 C.3     1  UNL1        0.0000
     11 C         139.0110  138.0062  163.9837 C.3     1  UNL1        0.0000
     12 C         138.0063  138.4728  166.3338 C.3     1  UNL1        0.0000
     13 C         139.1867  138.1495  165.4664 C.3     1  UNL1        0.0000
     14 C         140.4648  141.7627  166.3032 C.3     1  UNL1        0.1085
     15 C         139.5341  142.5072  165.3924 C.ar    1  UNL1       -0.0064
     16 C         138.4602  141.7681  164.6505 C.ar    1  UNL1       -0.0030
     17 C         137.5295  142.5126  163.7398 C.ar    1  UNL1       -0.0003
     18 C         137.6728  143.9962  163.5708 C.ar    1  UNL1       -0.0000
     19 C         138.7467  144.7353  164.3127 C.ar    1  UNL1       -0.0003
     20 C         139.6774  143.9908  165.2235 C.ar    1  UNL1       -0.0030
     21 C         140.2739  141.8311  167.7894 C.ar    1  UNL1       -0.0064
     22 C         139.8106  140.6194  168.5426 C.ar    1  UNL1       -0.0030
     23 C         139.6196  140.6879  170.0289 C.ar    1  UNL1       -0.0003
     24 C         139.8919  141.9679  170.7619 C.ar    1  UNL1       -0.0000
     25 C         140.3552  143.1795  170.0087 C.ar    1  UNL1       -0.0003
     26 C         140.5461  143.1112  168.5225 C.ar    1  UNL1       -0.0030
@<TRIPOS>BOND
     1    12    13    1
     2    13    11    1
     3    11    10    1
     4    10     9    1
     5     9     8    1
     6     8     7    1
     7     7     4    1
     8     4     5    1
     9     5     6    1
    10     4     3    1
    11     3     1    1
    12     1     2    3
    13     2    14    1
    14    14    15    1
    15    15    16   ar
    16    16    17   ar
    17    17    18   ar
    18    18    19   ar
    19    19    20   ar
    20    14    21    1
    21    21    22   ar
    22    22    23   ar
    23    23    24   ar
    24    24    25   ar
    25    25    26   ar
    26    20    15   ar
    27    26    21   ar
@<TRIPOS>MOLECULE
*****
 26 27 0 0 0
SMALL
GASTEIGER

@<TRIPOS>ATOM
      1 C         140.4518  143.0052  168.4640 C.1     1  UNL1       -0.0724
      2 C         140.0778  142.5918  167.0714 C.1     1  UNL1       -0.0817
      3 C         140.8258  143.4186  169.8565 C.3     1  UNL1        0.1498
      4 N         141.8425  142.6284  170.6259 N.3     1  UNL1       -0.2618
      5 C         143.2486  143.1356  170.7509 C.3     1  UNL1        0.0730
      6 C         144.3171  142.6170  169.8346 C.3     1  UNL1        0.0188
      7 C         141.4531  141.3310  171.2703 C.3     1  UNL1        0.0730
      8 C         141.1339  140.1373  170.4200 C.3     1  UNL1        0.0174
      9 C         142.1557  139.6066  169.4586 C.3     1  UNL1        0.0014
     10 C         142.1250  140.0327  168.0206 C.3     1  UNL1        0.0000
     11 C         142.5803  139.0876  166.9485 C.3     1  UNL1        0.0000
     12 C         143.3166  141.0845  165.4584 C.3     1  UNL1        0.0000
     13 C         143.3058  139.6121  165.7451 C.3     1  UNL1        0.0000
     14 C         139.7038  142.1784  165.6788 C.3     1  UNL1        0.1085
     15 C         139.5355  143.2156  164.6083 C.ar    1  UNL1       -0.0064
     16 C         140.7084  144.0448  164.1764 C.ar    1  UNL1       -0.0030
     17 C         140.5401  145.0819  163.1059 C.ar    1  UNL1       -0.0003
     18 C         139.1988  145.2898  162.4673 C.ar    1  UNL1       -0.0000
     19 C         138.0259  144.4607  162.8992 C.ar    1  UNL1       -0.0003
     20 C         138.1942  143.4235  163.9697 C.ar    1  UNL1       -0.0030
     21 C         139.4980  140.7280  165.3568 C.ar    1  UNL1       -0.0064
     22 C         138.7805  139.8384  166.3283 C.ar    1  UNL1       -0.0030
     23 C         138.5747  138.3879  166.0062 C.ar    1  UNL1       -0.0003
     24 C         139.0866  137.8269  164.7126 C.ar    1  UNL1       -0.0000
     25 C         139.8042  138.7165  163.7412 C.ar    1  UNL1       -0.0003
     26 C         140.0099  140.1669  164.0632 C.ar    1  UNL1       -0.0030
@<TRIPOS>BOND
     1    12    13    1
     2    13    11    1
     3    11    10    1
     4    10     9    1
     5     9     8    1
     6     8     7    1
     7     7     4    1
     8     4     5    1
     9     5     6    1
    10     4     3    1
    11     3     1    1
    12     1     2    3
    13     2    14    1
    14    14    15    1
    15    15    16   ar
    16    16    17   ar
    17    17    18   ar
    18    18    19   ar
    19    19    20   ar
    20    14    21    1
    21    21    22   ar
    22    22    23   ar
    23    23    24   ar
    24    24    25   ar
    25    25    26   ar
    26    20    15   ar
    27    26    21   ar
@<TRIPOS>MOLECULE
*****
 26 27 0 0 0
SMALL
GASTEIGER

@<TRIPOS>ATOM
      1 C         141.7170  143.4535  163.8132 C.1     1  UNL1       -0.0724
      2 C         141.3450  142.6627  165.0324 C.1     1  UNL1       -0.0817
      3 C         142.0890  144.2442  162.5941 C.3     1  UNL1        0.1498
      4 N         141.2348  144.1711  161.3633 N.3     1  UNL1       -0.2618
      5 C         140.4936  145.3868  160.8915 C.3     1  UNL1        0.0730
      6 C         139.8619  146.3136  161.8876 C.3     1  UNL1        0.0188
      7 C         141.1218  142.8823  160.6041 C.3     1  UNL1        0.0730
      8 C         139.8306  142.1189  160.6104 C.3     1  UNL1        0.0174
      9 C         139.1469  141.8124  161.9098 C.3     1  UNL1        0.0014
     10 C         137.8494  142.4833  162.2511 C.3     1  UNL1        0.0000
     11 C         137.8467  143.7323  163.0818 C.3     1  UNL1        0.0000
     12 C         138.4422  144.7740  165.3862 C.3     1  UNL1        0.0000
     13 C         137.8888  143.6378  164.5782 C.3     1  UNL1        0.0000
     14 C         140.9730  141.8720  166.2516 C.3     1  UNL1        0.1085
     15 C         141.4966  142.2779  167.5974 C.ar    1  UNL1       -0.0064
     16 C         142.9054  141.9410  167.9868 C.ar    1  UNL1       -0.0030
     17 C         143.4290  142.3470  169.3325 C.ar    1  UNL1       -0.0003
     18 C         142.5437  143.0897  170.2889 C.ar    1  UNL1       -0.0000
     19 C         141.1349  143.4266  169.8994 C.ar    1  UNL1       -0.0003
     20 C         140.6113  143.0207  168.5537 C.ar    1  UNL1       -0.0030
     21 C         140.0774  140.6754  166.1250 C.ar    1  UNL1       -0.0064
     22 C         139.2727  140.2128  167.3033 C.ar    1  UNL1       -0.0030
     23 C         138.3771  139.0162  167.1766 C.ar    1  UNL1       -0.0003
     24 C         138.2862  138.2822  165.8717 C.ar    1  UNL1       -0.0000
     25 C         139.0909  138.7447  164.6934 C.ar    1  UNL1       -0.0003
     26 C         139.9865  139.9413  164.8200 C.ar    1  UNL1       -0.0030
@<TRIPOS>BOND
     1    12    13    1
     2    13    11    1
     3    11    10    1
     4    10     9    1
     5     9     8    1
     6     8     7    1
     7     7     4    1
     8     4     5    1
     9     5     6    1
    10     4     3    1
    11     3     1    1
    12     1     2    3
    13     2    14    1
    14    14    15    1
    15    15    16   ar
    16    16    17   ar
    17    17    18   ar
    18    18    19   ar
    19    19    20   ar
    20    14    21    1
    21    21    22   ar
    22    22    23   ar
    23    23    24   ar
    24    24    25   ar
    25    25    26   ar
    26    20    15   ar
    27    26    21   ar
@<TRIPOS>MOLECULE
*****
 26 27 0 0 0
SMALL
GASTEIGER

@<TRIPOS>ATOM
      1 C         139.5010  140.5502  168.2232 C.1     1  UNL1       -0.0724
      2 C         139.5909  140.6675  166.7305 C.1     1  UNL1       -0.0817
      3 C         139.4111  140.4329  169.7159 C.3     1  UNL1        0.1498
      4 N         140.2002  141.3618  170.5902 N.3     1  UNL1       -0.2618
      5 C         139.7445  142.7777  170.7838 C.3     1  UNL1        0.0730
      6 C         140.3186  143.8731  169.9349 C.3     1  UNL1        0.0188
      7 C         141.4451  140.8748  171.2708 C.3     1  UNL1        0.0730
      8 C         142.6592  140.5333  170.4588 C.3     1  UNL1        0.0174
      9 C         143.2697  141.5619  169.5536 C.3     1  UNL1        0.0014
     10 C         142.7512  141.7340  168.1566 C.3     1  UNL1        0.0000
     11 C         143.1705  140.7795  167.0781 C.3     1  UNL1        0.0000
     12 C         143.5015  138.3323  166.2707 C.3     1  UNL1        0.0000
     13 C         142.8793  139.3147  167.2183 C.3     1  UNL1        0.0000
     14 C         139.6808  140.7849  165.2378 C.3     1  UNL1        0.1085
     15 C         139.0391  141.9454  164.5367 C.ar    1  UNL1       -0.0064
     16 C         138.3317  141.7348  163.2310 C.ar    1  UNL1       -0.0030
     17 C         137.6900  142.8953  162.5299 C.ar    1  UNL1       -0.0003
     18 C         137.7558  144.2664  163.1347 C.ar    1  UNL1       -0.0000
     19 C         138.4632  144.4770  164.4405 C.ar    1  UNL1       -0.0003
     20 C         139.1049  143.3165  165.1415 C.ar    1  UNL1       -0.0030
     21 C         140.4124  139.7418  164.4462 C.ar    1  UNL1       -0.0064
     22 C         140.0083  138.3010  164.5502 C.ar    1  UNL1       -0.0030
     23 C         140.7400  137.2578  163.7586 C.ar    1  UNL1       -0.0003
     24 C         141.8756  137.6555  162.8630 C.ar    1  UNL1       -0.0000
     25 C         142.2797  139.0963  162.7590 C.ar    1  UNL1       -0.0003
     26 C         141.5481  140.1395  163.5506 C.ar    1  UNL1       -0.0030
@<TRIPOS>BOND
     1    12    13    1
     2    13    11    1
     3    11    10    1
     4    10     9    1
     5     9     8    1
     6     8     7    1
     7     7     4    1
     8     4     5    1
     9     5     6    1
    10     4     3    1
    11     3     1    1
    12     1     2    3
    13     2    14    1
    14    14    15    1
    15    15    16   ar
    16    16    17   ar
    17    17    18   ar
    18    18    19   ar
    19    19    20   ar
    20    14    21    1
    21    21    22   ar
    22    22    23   ar
    23    23    24   ar
    24    24    25   ar
    25    25    26   ar
    26    20    15   ar
    27    26    21   ar
@<TRIPOS>MOLECULE
*****
 26 27 0 0 0
SMALL
GASTEIGER

@<TRIPOS>ATOM
      1 C         143.5873  141.9778  165.3173 C.1     1  UNL1       -0.0724
      2 C         142.4333  141.4237  166.0991 C.1     1  UNL1       -0.0817
      3 C         144.7413  142.5319  164.5355 C.3     1  UNL1        0.1498
      4 N         144.5328  143.0143  163.1306 N.3     1  UNL1       -0.2618
      5 C         144.7369  142.0767  161.9776 C.3     1  UNL1        0.0730
      6 C         144.6374  140.5950  162.1891 C.3     1  UNL1        0.0188
      7 C         144.1201  144.4343  162.8786 C.3     1  UNL1        0.0730
      8 C         143.2532  145.1508  163.8710 C.3     1  UNL1        0.0174
      9 C         141.7713  145.2297  163.6529 C.3     1  UNL1        0.0014
     10 C         140.9091  144.0313  163.9188 C.3     1  UNL1        0.0000
     11 C         139.8935  144.0680  165.0220 C.3     1  UNL1        0.0000
     12 C         138.0273  142.3353  164.5068 C.3     1  UNL1        0.0000
     13 C         138.4560  143.7556  164.7287 C.3     1  UNL1        0.0000
     14 C         141.2793  140.8696  166.8809 C.3     1  UNL1        0.1085
     15 C         140.4530  139.7552  166.3103 C.ar    1  UNL1       -0.0064
     16 C         139.0187  139.5991  166.7205 C.ar    1  UNL1       -0.0030
     17 C         138.1925  138.4848  166.1500 C.ar    1  UNL1       -0.0003
     18 C         138.8006  137.5265  165.1693 C.ar    1  UNL1       -0.0000
     19 C         140.2350  137.6825  164.7591 C.ar    1  UNL1       -0.0003
     20 C         141.0612  138.7968  165.3296 C.ar    1  UNL1       -0.0030
     21 C         140.9516  141.4298  168.2332 C.ar    1  UNL1       -0.0064
     22 C         140.6205  142.8852  168.3819 C.ar    1  UNL1       -0.0030
     23 C         140.2927  143.4454  169.7343 C.ar    1  UNL1       -0.0003
     24 C         140.2961  142.5502  170.9378 C.ar    1  UNL1       -0.0000
     25 C         140.6272  141.0948  170.7891 C.ar    1  UNL1       -0.0003
     26 C         140.9549  140.5346  169.4368 C.ar    1  UNL1       -0.0030
@<TRIPOS>BOND
     1    12    13    1
     2    13    11    1
     3    11    10    1
     4    10     9    1
     5     9     8    1
     6     8     7    1
     7     7     4    1
     8     4     5    1
     9     5     6    1
    10     4     3    1
    11     3     1    1
    12     1     2    3
    13     2    14    1
    14    14    15    1
    15    15    16   ar
    16    16    17   ar
    17    17    18   ar
    18    18    19   ar
    19    19    20   ar
    20    14    21    1
    21    21    22   ar
    22    22    23   ar
    23    23    24   ar
    24    24    25   ar
    25    25    26   ar
    26    20    15   ar
    27    26    21   ar
