@<TRIPOS>MOLECULE
*****
 34 38 0 0 0
SMALL
GASTEIGER

@<TRIPOS>ATOM
      1 N         140.6963  141.5052  168.8064 N.3     1  UNL1       -0.2752
      2 C         141.3796  142.8204  169.0374 C.3     1  UNL1        0.0578
      3 C         141.7907  142.8824  170.4786 C.3     1  UNL1        0.0173
      4 C         141.3614  141.6055  171.1384 C.3     1  UNL1        0.0173
      5 C         140.6850  140.7543  170.1049 C.3     1  UNL1        0.0578
      6 C         140.0644  140.1288  168.8791 C.3     1  UNL1        0.0203
      7 C         140.1503  140.9946  167.6572 C.3     1  UNL1        0.0250
      8 C         140.8079  142.3404  167.7364 C.3     1  UNL1        0.0203
      9 C         139.5786  140.5145  166.3561 C.ar    1  UNL1       -0.0224
     10 C         138.9059  139.1759  166.2809 C.ar    1  UNL1       -0.0043
     11 C         138.3342  138.6959  164.9799 C.ar    1  UNL1        0.0035
     12 C         138.4352  139.5544  163.7541 C.ar    1  UNL1        0.0714
     13 C         139.1079  140.8930  163.8292 C.ar    1  UNL1        0.0035
     14 C         139.6796  141.3730  165.1302 C.ar    1  UNL1       -0.0043
     15 C         137.8635  139.0743  162.4531 C.3     1  UNL1        0.4186
     16 F         137.2050  138.9473  161.1113 F       1  UNL1       -0.1659
     17 F         138.1410  137.6003  162.4565 F       1  UNL1       -0.1659
     18 F         137.4349  140.4739  162.1250 F       1  UNL1       -0.1659
     19 C         140.1246  141.0252  167.5053 C.3     1  UNL1        0.0729
     20 C         141.0173  140.3824  166.4855 C.3     1  UNL1        0.0294
     21 C         142.3798  139.8961  166.8817 C.3     1  UNL1        0.0666
     22 S         142.9731  138.6952  166.2066 S.3     1  UNL1       -0.0756
     23 C         142.0713  137.9863  162.4986 C.ar    1  UNL1        0.2029
     24 N         141.1290  137.0598  163.2083 N.ar    1  UNL1       -0.1250
     25 N         141.3521  137.2126  164.6837 N.ar    1  UNL1       -0.1220
     26 C         142.4323  138.2335  164.8859 C.ar    1  UNL1        0.1933
     27 N         142.8768  138.7117  163.5354 N.ar    1  UNL1       -0.2860
     28 C         143.8546  139.6681  162.9195 C.3     1  UNL1        0.1341
     29 C         140.7707  140.4072  160.7388 C.3     1  UNL1        0.0556
     30 C         141.5899  139.2701  160.2041 C.ar    1  UNL1        0.1001
     31 N         141.9550  139.0462  158.7665 N.ar    1  UNL1       -0.2085
     32 C         142.7785  137.7950  158.6870 C.ar    1  UNL1        0.2849
     33 O         142.9223  137.2457  160.0753 O.2     1  UNL1       -0.4283
     34 C         142.1877  138.1573  161.0130 C.ar    1  UNL1        0.1964
@<TRIPOS>BOND
     1    29    30    1
     2    30    31   ar
     3    31    32   ar
     4    32    33   ar
     5    33    34   ar
     6    34    23    1
     7    23    24   ar
     8    24    25   ar
     9    25    26   ar
    10    26    22    1
    11    22    21    1
    12    21    20    1
    13    20    19    1
    14    19     1    1
    15     1     2    1
    16     2     3    1
    17     3     4    1
    18     5     4    1
    19     5     6    1
    20     6     7    1
    21     7     9    1
    22     9    10   ar
    23    10    11   ar
    24    11    12   ar
    25    12    15    1
    26    15    16    1
    27    15    17    1
    28    15    18    1
    29    12    13   ar
    30    13    14   ar
    31     7     8    1
    32    26    27   ar
    33    27    28    1
    34    34    30   ar
    35    27    23   ar
    36     5     1    1
    37    14     9   ar
    38     8     2    1
@<TRIPOS>MOLECULE
*****
 34 38 0 0 0
SMALL
GASTEIGER

@<TRIPOS>ATOM
      1 N         141.4393  140.9911  168.1223 N.3     1  UNL1       -0.2752
      2 C         142.3995  139.8401  168.0649 C.3     1  UNL1        0.0578
      3 C         142.4376  139.2001  169.4210 C.3     1  UNL1        0.0173
      4 C         141.5009  139.9556  170.3165 C.3     1  UNL1        0.0173
      5 C         140.8839  141.0625  169.5139 C.3     1  UNL1        0.0578
      6 C         140.4328  142.0669  168.4811 C.3     1  UNL1        0.0203
      7 C         141.0718  141.8719  167.1381 C.3     1  UNL1        0.0250
      8 C         142.0551  140.7584  166.9300 C.3     1  UNL1        0.0203
      9 C         140.7274  142.7903  166.0031 C.ar    1  UNL1       -0.0224
     10 C         141.6175  142.8595  164.7978 C.ar    1  UNL1       -0.0043
     11 C         141.2731  143.7778  163.6629 C.ar    1  UNL1        0.0035
     12 C         140.0386  144.6270  163.7334 C.ar    1  UNL1        0.0714
     13 C         139.1485  144.5577  164.9387 C.ar    1  UNL1        0.0035
     14 C         139.4929  143.6394  166.0736 C.ar    1  UNL1       -0.0043
     15 C         139.6943  145.5453  162.5985 C.3     1  UNL1        0.4186
     16 F         139.7101  146.5276  161.4648 F       1  UNL1       -0.1659
     17 F         138.2082  145.4021  162.4536 F       1  UNL1       -0.1659
     18 F         141.1400  145.9220  162.4646 F       1  UNL1       -0.1659
     19 C         141.0949  141.9094  166.9874 C.3     1  UNL1        0.0729
     20 C         139.8465  141.6790  166.1884 C.3     1  UNL1        0.0294
     21 C         139.3394  140.2836  165.9753 C.3     1  UNL1        0.0666
     22 S         138.3055  140.0139  164.9225 S.3     1  UNL1       -0.0756
     23 C         138.9043  141.8275  161.5435 C.ar    1  UNL1        0.2029
     24 N         137.5687  142.3842  161.9385 N.ar    1  UNL1       -0.1250
     25 N         137.1818  141.7726  163.2524 N.ar    1  UNL1       -0.1220
     26 C         138.2783  140.8379  163.6694 C.ar    1  UNL1        0.1933
     27 N         139.3429  140.8718  162.6132 N.ar    1  UNL1       -0.2860
     28 C         140.6772  140.2589  162.3065 C.3     1  UNL1        0.1341
     29 C         138.5037  140.4480  158.6133 C.3     1  UNL1        0.0556
     30 C         139.4832  141.5328  158.9507 C.ar    1  UNL1        0.1001
     31 N         140.4506  142.1739  158.0003 N.ar    1  UNL1       -0.2085
     32 C         141.2326  143.2042  158.7598 C.ar    1  UNL1        0.2849
     33 O         140.7485  143.1999  160.1796 O.2     1  UNL1       -0.4283
     34 C         139.6673  142.1668  160.2975 C.ar    1  UNL1        0.1964
@<TRIPOS>BOND
     1    29    30    1
     2    30    31   ar
     3    31    32   ar
     4    32    33   ar
     5    33    34   ar
     6    34    23    1
     7    23    24   ar
     8    24    25   ar
     9    25    26   ar
    10    26    22    1
    11    22    21    1
    12    21    20    1
    13    20    19    1
    14    19     1    1
    15     1     2    1
    16     2     3    1
    17     3     4    1
    18     5     4    1
    19     5     6    1
    20     6     7    1
    21     7     9    1
    22     9    10   ar
    23    10    11   ar
    24    11    12   ar
    25    12    15    1
    26    15    16    1
    27    15    17    1
    28    15    18    1
    29    12    13   ar
    30    13    14   ar
    31     7     8    1
    32    26    27   ar
    33    27    28    1
    34    34    30   ar
    35    27    23   ar
    36     5     1    1
    37    14     9   ar
    38     8     2    1
@<TRIPOS>MOLECULE
*****
 34 38 0 0 0
SMALL
GASTEIGER

@<TRIPOS>ATOM
      1 N         138.6415  139.4917  163.8541 N.3     1  UNL1       -0.2752
      2 C         138.8420  138.0901  163.3587 C.3     1  UNL1        0.0578
      3 C         138.2721  138.0019  161.9740 C.3     1  UNL1        0.0173
      4 C         137.7193  139.3489  161.6137 C.3     1  UNL1        0.0173
      5 C         137.9476  140.2697  162.7756 C.3     1  UNL1        0.0578
      6 C         138.3042  140.9537  164.0733 C.3     1  UNL1        0.0203
      7 C         138.9928  140.0523  165.0549 C.3     1  UNL1        0.0250
      8 C         139.2617  138.6205  164.6976 C.3     1  UNL1        0.0203
      9 C         139.4125  140.5828  166.3938 C.ar    1  UNL1       -0.0224
     10 C         139.9736  141.9691  166.5089 C.ar    1  UNL1       -0.0043
     11 C         140.3932  142.4996  167.8477 C.ar    1  UNL1        0.0035
     12 C         140.2517  141.6437  169.0714 C.ar    1  UNL1        0.0714
     13 C         139.6906  140.2574  168.9563 C.ar    1  UNL1        0.0035
     14 C         139.2710  139.7270  167.6175 C.ar    1  UNL1       -0.0043
     15 C         140.6714  142.1742  170.4102 C.3     1  UNL1        0.4186
     16 F         140.9975  142.3694  171.8613 F       1  UNL1       -0.1659
     17 F         141.0983  143.5836  170.1247 F       1  UNL1       -0.1659
     18 F         140.3362  140.8540  171.0384 F       1  UNL1       -0.1659
     19 C         139.0611  140.0221  165.1930 C.3     1  UNL1        0.0729
     20 C         140.4243  140.6232  165.3679 C.3     1  UNL1        0.0294
     21 C         141.6333  139.9043  164.8469 C.3     1  UNL1        0.0666
     22 S         142.8768  140.6735  164.5119 S.3     1  UNL1       -0.0756
     23 C         142.1495  143.7955  162.3235 C.ar    1  UNL1        0.2029
     24 N         143.0774  144.3719  163.3513 N.ar    1  UNL1       -0.1250
     25 N         143.4628  143.2726  164.2963 N.ar    1  UNL1       -0.1220
     26 C         142.7730  142.0167  163.8523 C.ar    1  UNL1        0.1933
     27 N         141.9614  142.3399  162.6330 N.ar    1  UNL1       -0.2860
     28 C         141.0429  141.6712  161.6536 C.3     1  UNL1        0.1341
     29 C         139.3145  145.4088  162.4231 C.3     1  UNL1        0.0556
     30 C         140.2171  145.2849  161.2315 C.ar    1  UNL1        0.1001
     31 N         139.9749  145.8808  159.8764 N.ar    1  UNL1       -0.2085
     32 C         141.1284  145.5076  158.9931 C.ar    1  UNL1        0.2849
     33 O         142.0833  144.6810  159.8022 O.2     1  UNL1       -0.4283
     34 C         141.5201  144.5433  161.1856 C.ar    1  UNL1        0.1964
@<TRIPOS>BOND
     1    29    30    1
     2    30    31   ar
     3    31    32   ar
     4    32    33   ar
     5    33    34   ar
     6    34    23    1
     7    23    24   ar
     8    24    25   ar
     9    25    26   ar
    10    26    22    1
    11    22    21    1
    12    21    20    1
    13    20    19    1
    14    19     1    1
    15     1     2    1
    16     2     3    1
    17     3     4    1
    18     5     4    1
    19     5     6    1
    20     6     7    1
    21     7     9    1
    22     9    10   ar
    23    10    11   ar
    24    11    12   ar
    25    12    15    1
    26    15    16    1
    27    15    17    1
    28    15    18    1
    29    12    13   ar
    30    13    14   ar
    31     7     8    1
    32    26    27   ar
    33    27    28    1
    34    34    30   ar
    35    27    23   ar
    36     5     1    1
    37    14     9   ar
    38     8     2    1
@<TRIPOS>MOLECULE
*****
 34 38 0 0 0
SMALL
GASTEIGER

@<TRIPOS>ATOM
      1 N         140.6123  141.4203  168.5620 N.3     1  UNL1       -0.2752
      2 C         141.2173  142.7486  168.9077 C.3     1  UNL1        0.0578
      3 C         141.6720  142.6933  170.3361 C.3     1  UNL1        0.0173
      4 C         141.3479  141.3308  170.8732 C.3     1  UNL1        0.0173
      5 C         140.6930  140.5440  169.7768 C.3     1  UNL1        0.0578
      6 C         140.0728  140.0041  168.5107 C.3     1  UNL1        0.0203
      7 C         140.0617  140.9918  167.3819 C.3     1  UNL1        0.0250
      8 C         140.6340  142.3641  167.5804 C.3     1  UNL1        0.0203
      9 C         139.4784  140.6073  166.0545 C.ar    1  UNL1       -0.0224
     10 C         139.0430  141.6706  165.0902 C.ar    1  UNL1       -0.0043
     11 C         138.4597  141.2860  163.7629 C.ar    1  UNL1        0.0035
     12 C         138.3117  139.8382  163.3998 C.ar    1  UNL1        0.0714
     13 C         138.7471  138.7749  164.3641 C.ar    1  UNL1        0.0035
     14 C         139.3304  139.1594  165.6914 C.ar    1  UNL1       -0.0043
     15 C         137.7284  139.4537  162.0725 C.3     1  UNL1        0.4186
     16 F         137.0507  139.4224  160.7346 F       1  UNL1       -0.1659
     17 F         138.0349  137.9904  161.9514 F       1  UNL1       -0.1659
     18 F         137.2669  140.8659  161.8662 F       1  UNL1       -0.1659
     19 C         140.0290  141.0357  167.2347 C.3     1  UNL1        0.0729
     20 C         140.9155  140.4858  166.1568 C.3     1  UNL1        0.0294
     21 C         142.4038  140.4750  166.3428 C.3     1  UNL1        0.0666
     22 S         143.2995  140.9853  165.2532 S.3     1  UNL1       -0.0756
     23 C         142.1435  143.8473  162.9001 C.ar    1  UNL1        0.2029
     24 N         142.7664  144.6268  164.0200 N.ar    1  UNL1       -0.1250
     25 N         143.2753  143.6495  165.0379 N.ar    1  UNL1       -0.1220
     26 C         142.9669  142.2661  164.5469 C.ar    1  UNL1        0.1933
     27 N         142.2674  142.3884  163.2256 N.ar    1  UNL1       -0.2860
     28 C         141.6692  141.5215  162.1576 C.3     1  UNL1        0.1341
     29 C         139.0755  144.9320  162.6551 C.3     1  UNL1        0.0556
     30 C         140.0980  144.9240  161.5577 C.ar    1  UNL1        0.1001
     31 N         139.8898  145.4131  160.1551 N.ar    1  UNL1       -0.2085
     32 C         141.1714  145.2168  159.4008 C.ar    1  UNL1        0.2849
     33 O         142.1716  144.6064  160.3372 O.2     1  UNL1       -0.4283
     34 C         141.5083  144.4254  161.6703 C.ar    1  UNL1        0.1964
@<TRIPOS>BOND
     1    29    30    1
     2    30    31   ar
     3    31    32   ar
     4    32    33   ar
     5    33    34   ar
     6    34    23    1
     7    23    24   ar
     8    24    25   ar
     9    25    26   ar
    10    26    22    1
    11    22    21    1
    12    21    20    1
    13    20    19    1
    14    19     1    1
    15     1     2    1
    16     2     3    1
    17     3     4    1
    18     5     4    1
    19     5     6    1
    20     6     7    1
    21     7     9    1
    22     9    10   ar
    23    10    11   ar
    24    11    12   ar
    25    12    15    1
    26    15    16    1
    27    15    17    1
    28    15    18    1
    29    12    13   ar
    30    13    14   ar
    31     7     8    1
    32    26    27   ar
    33    27    28    1
    34    34    30   ar
    35    27    23   ar
    36     5     1    1
    37    14     9   ar
    38     8     2    1
@<TRIPOS>MOLECULE
*****
 34 38 0 0 0
SMALL
GASTEIGER

@<TRIPOS>ATOM
      1 N         140.9770  141.3058  168.9383 N.3     1  UNL1       -0.2752
      2 C         141.1720  140.4147  170.1291 C.3     1  UNL1        0.0578
      3 C         141.8593  141.2123  171.1974 C.3     1  UNL1        0.0173
      4 C         142.0892  142.5964  170.6669 C.3     1  UNL1        0.0173
      5 C         141.5439  142.6542  169.2707 C.3     1  UNL1        0.0578
      6 C         140.9221  142.4230  167.9146 C.3     1  UNL1        0.0203
      7 C         140.3990  141.0299  167.7262 C.3     1  UNL1        0.0250
      8 C         140.5239  140.0257  168.8334 C.3     1  UNL1        0.0203
      9 C         139.7509  140.6409  166.4304 C.ar    1  UNL1       -0.0224
     10 C         139.8784  141.5324  165.2308 C.ar    1  UNL1       -0.0043
     11 C         139.2304  141.1434  163.9352 C.ar    1  UNL1        0.0035
     12 C         138.4549  139.8630  163.8392 C.ar    1  UNL1        0.0714
     13 C         138.3274  138.9715  165.0388 C.ar    1  UNL1        0.0035
     14 C         138.9755  139.3605  166.3344 C.ar    1  UNL1       -0.0043
     15 C         137.8069  139.4741  162.5435 C.3     1  UNL1        0.4186
     16 F         137.2542  138.7480  161.3529 F       1  UNL1       -0.1659
     17 F         137.3451  140.7778  161.9629 F       1  UNL1       -0.1659
     18 F         138.1212  138.0335  162.8187 F       1  UNL1       -0.1659
     19 C         140.3290  140.9168  167.6427 C.3     1  UNL1        0.0729
     20 C         141.1723  140.4559  166.4909 C.3     1  UNL1        0.0294
     21 C         142.5582  139.9375  166.7365 C.3     1  UNL1        0.0666
     22 S         142.9860  138.6289  166.1409 S.3     1  UNL1       -0.0756
     23 C         142.0407  137.9370  162.4406 C.ar    1  UNL1        0.2029
     24 N         141.0609  137.0576  163.1592 N.ar    1  UNL1       -0.1250
     25 N         141.2957  137.2097  164.6329 N.ar    1  UNL1       -0.1220
     26 C         142.4207  138.1832  164.8249 C.ar    1  UNL1        0.1933
     27 N         142.8811  138.6327  163.4699 N.ar    1  UNL1       -0.2860
     28 C         143.8979  139.5411  162.8447 C.3     1  UNL1        0.1341
     29 C         140.6733  140.2937  160.6444 C.3     1  UNL1        0.0556
     30 C         141.5308  139.1766  160.1279 C.ar    1  UNL1        0.1001
     31 N         141.9102  138.9466  158.6950 N.ar    1  UNL1       -0.2085
     32 C         142.7732  137.7212  158.6350 C.ar    1  UNL1        0.2849
     33 O         142.9271  137.1939  160.0308 O.2     1  UNL1       -0.4283
     34 C         142.1592  138.0933  160.9534 C.ar    1  UNL1        0.1964
@<TRIPOS>BOND
     1    29    30    1
     2    30    31   ar
     3    31    32   ar
     4    32    33   ar
     5    33    34   ar
     6    34    23    1
     7    23    24   ar
     8    24    25   ar
     9    25    26   ar
    10    26    22    1
    11    22    21    1
    12    21    20    1
    13    20    19    1
    14    19     1    1
    15     1     2    1
    16     2     3    1
    17     3     4    1
    18     5     4    1
    19     5     6    1
    20     6     7    1
    21     7     9    1
    22     9    10   ar
    23    10    11   ar
    24    11    12   ar
    25    12    15    1
    26    15    16    1
    27    15    17    1
    28    15    18    1
    29    12    13   ar
    30    13    14   ar
    31     7     8    1
    32    26    27   ar
    33    27    28    1
    34    34    30   ar
    35    27    23   ar
    36     5     1    1
    37    14     9   ar
    38     8     2    1
@<TRIPOS>MOLECULE
*****
 34 38 0 0 0
SMALL
GASTEIGER

@<TRIPOS>ATOM
      1 N         139.4157  140.1062  163.2016 N.3     1  UNL1       -0.2752
      2 C         138.2374  139.4062  162.5919 C.3     1  UNL1        0.0578
      3 C         138.4895  139.2712  161.1194 C.3     1  UNL1        0.0173
      4 C         139.8235  139.8878  160.8191 C.3     1  UNL1        0.0173
      5 C         140.3960  140.4038  162.1060 C.3     1  UNL1        0.0578
      6 C         140.7165  140.8163  163.5224 C.3     1  UNL1        0.0203
      7 C         139.6454  140.4535  164.5078 C.3     1  UNL1        0.0250
      8 C         138.4058  139.7484  164.0426 C.3     1  UNL1        0.0203
      9 C         139.8138  140.7958  165.9586 C.ar    1  UNL1       -0.0224
     10 C         139.3039  139.8598  167.0141 C.ar    1  UNL1       -0.0043
     11 C         139.4724  140.2021  168.4647 C.ar    1  UNL1        0.0035
     12 C         140.1507  141.4802  168.8599 C.ar    1  UNL1        0.0714
     13 C         140.6606  142.4161  167.8044 C.ar    1  UNL1        0.0035
     14 C         140.4922  142.0739  166.3538 C.ar    1  UNL1       -0.0043
     15 C         140.3192  141.8224  170.3106 C.3     1  UNL1        0.4186
     16 F         140.7782  141.9441  171.7335 F       1  UNL1       -0.1659
     17 F         139.1751  142.7482  170.6004 F       1  UNL1       -0.1659
     18 F         141.5403  140.9536  170.3738 F       1  UNL1       -0.1659
     19 C         139.5841  140.4484  164.6523 C.3     1  UNL1        0.0729
     20 C         139.1970  141.8088  165.1519 C.3     1  UNL1        0.0294
     21 C         137.9241  142.4467  164.6802 C.3     1  UNL1        0.0666
     22 S         137.9732  143.6987  163.8556 S.3     1  UNL1       -0.0756
     23 C         139.6895  143.9980  160.3872 C.ar    1  UNL1        0.2029
     24 N         138.5393  143.0912  160.0640 N.ar    1  UNL1       -0.1250
     25 N         137.7563  142.8687  161.3240 N.ar    1  UNL1       -0.1220
     26 C         138.4227  143.6380  162.4258 C.ar    1  UNL1        0.1933
     27 N         139.6175  144.3360  161.8468 N.ar    1  UNL1       -0.2860
     28 C         140.7337  145.2449  162.2690 C.3     1  UNL1        0.1341
     29 C         142.5551  142.5620  159.7742 C.3     1  UNL1        0.0556
     30 C         142.0465  143.8220  159.1387 C.ar    1  UNL1        0.1001
     31 N         142.7658  144.6430  158.1098 N.ar    1  UNL1       -0.2085
     32 C         141.8931  145.8105  157.7557 C.ar    1  UNL1        0.2849
     33 O         140.6346  145.7110  158.5658 O.2     1  UNL1       -0.4283
     34 C         140.7293  144.4820  159.4205 C.ar    1  UNL1        0.1964
@<TRIPOS>BOND
     1    29    30    1
     2    30    31   ar
     3    31    32   ar
     4    32    33   ar
     5    33    34   ar
     6    34    23    1
     7    23    24   ar
     8    24    25   ar
     9    25    26   ar
    10    26    22    1
    11    22    21    1
    12    21    20    1
    13    20    19    1
    14    19     1    1
    15     1     2    1
    16     2     3    1
    17     3     4    1
    18     5     4    1
    19     5     6    1
    20     6     7    1
    21     7     9    1
    22     9    10   ar
    23    10    11   ar
    24    11    12   ar
    25    12    15    1
    26    15    16    1
    27    15    17    1
    28    15    18    1
    29    12    13   ar
    30    13    14   ar
    31     7     8    1
    32    26    27   ar
    33    27    28    1
    34    34    30   ar
    35    27    23   ar
    36     5     1    1
    37    14     9   ar
    38     8     2    1
@<TRIPOS>MOLECULE
*****
 34 38 0 0 0
SMALL
GASTEIGER

@<TRIPOS>ATOM
      1 N         140.4682  141.5384  168.8113 N.3     1  UNL1       -0.2752
      2 C         141.3882  142.7100  168.9871 C.3     1  UNL1        0.0578
      3 C         141.6057  142.9121  170.4575 C.3     1  UNL1        0.0173
      4 C         140.8200  141.8653  171.1903 C.3     1  UNL1        0.0173
      5 C         140.1170  141.0164  170.1729 C.3     1  UNL1        0.0578
      6 C         139.5435  140.3446  168.9487 C.3     1  UNL1        0.0203
      7 C         139.9819  140.9748  167.6600 C.3     1  UNL1        0.0250
      8 C         140.9043  142.1575  167.6792 C.3     1  UNL1        0.0203
      9 C         139.4980  140.4222  166.3521 C.ar    1  UNL1       -0.0224
     10 C         139.2241  138.9540  166.2136 C.ar    1  UNL1       -0.0043
     11 C         138.7402  138.4015  164.9057 C.ar    1  UNL1        0.0035
     12 C         138.5301  139.3172  163.7364 C.ar    1  UNL1        0.0714
     13 C         138.8040  140.7855  163.8749 C.ar    1  UNL1        0.0035
     14 C         139.2879  141.3380  165.1828 C.ar    1  UNL1       -0.0043
     15 C         138.0462  138.7646  162.4286 C.3     1  UNL1        0.4186
     16 F         137.6697  137.8941  161.2664 F       1  UNL1       -0.1659
     17 F         137.5560  139.9709  161.6839 F       1  UNL1       -0.1659
     18 F         138.4306  137.3835  162.8699 F       1  UNL1       -0.1659
     19 C         139.9842  140.9860  167.5034 C.3     1  UNL1        0.0729
     20 C         140.7095  139.8425  166.8579 C.3     1  UNL1        0.0294
     21 C         142.1973  139.7201  167.0036 C.3     1  UNL1        0.0666
     22 S         143.0413  139.3717  165.8136 S.3     1  UNL1       -0.0756
     23 C         142.1876  141.3183  162.5660 C.ar    1  UNL1        0.2029
     24 N         141.9232  139.9060  162.1354 N.ar    1  UNL1       -0.1250
     25 N         142.2109  139.0049  163.2995 N.ar    1  UNL1       -0.1220
     26 C         142.6530  139.8603  164.4496 C.ar    1  UNL1        0.1933
     27 N         142.6386  141.2900  163.9963 N.ar    1  UNL1       -0.2860
     28 C         142.9294  142.6649  164.5211 C.3     1  UNL1        0.1341
     29 C         144.4412  142.5694  160.5646 C.3     1  UNL1        0.0556
     30 C         143.0647  143.1188  160.7958 C.ar    1  UNL1        0.1001
     31 N         142.4824  144.3397  160.1475 N.ar    1  UNL1       -0.2085
     32 C         141.0866  144.5192  160.6668 C.ar    1  UNL1        0.2849
     33 O         140.8063  143.4092  161.6360 O.2     1  UNL1       -0.4283
     34 C         142.0288  142.5437  161.7157 C.ar    1  UNL1        0.1964
@<TRIPOS>BOND
     1    29    30    1
     2    30    31   ar
     3    31    32   ar
     4    32    33   ar
     5    33    34   ar
     6    34    23    1
     7    23    24   ar
     8    24    25   ar
     9    25    26   ar
    10    26    22    1
    11    22    21    1
    12    21    20    1
    13    20    19    1
    14    19     1    1
    15     1     2    1
    16     2     3    1
    17     3     4    1
    18     5     4    1
    19     5     6    1
    20     6     7    1
    21     7     9    1
    22     9    10   ar
    23    10    11   ar
    24    11    12   ar
    25    12    15    1
    26    15    16    1
    27    15    17    1
    28    15    18    1
    29    12    13   ar
    30    13    14   ar
    31     7     8    1
    32    26    27   ar
    33    27    28    1
    34    34    30   ar
    35    27    23   ar
    36     5     1    1
    37    14     9   ar
    38     8     2    1
@<TRIPOS>MOLECULE
*****
 34 38 0 0 0
SMALL
GASTEIGER

@<TRIPOS>ATOM
      1 N         141.5908  139.3818  160.8156 N.3     1  UNL1       -0.2752
      2 C         142.0421  138.2502  159.9404 C.3     1  UNL1        0.0578
      3 C         142.7221  138.8363  158.7387 C.3     1  UNL1        0.0173
      4 C         142.6912  140.3301  158.8712 C.3     1  UNL1        0.0173
      5 C         141.9920  140.6673  160.1548 C.3     1  UNL1        0.0578
      6 C         141.2634  140.7066  161.4764 C.3     1  UNL1        0.0203
      7 C         140.9276  139.3475  162.0149 C.3     1  UNL1        0.0250
      8 C         141.3170  138.1193  161.2469 C.3     1  UNL1        0.0203
      9 C         140.2025  139.2166  163.3216 C.ar    1  UNL1       -0.0224
     10 C         139.9983  140.4224  164.1901 C.ar    1  UNL1       -0.0043
     11 C         139.2733  140.2915  165.4966 C.ar    1  UNL1        0.0035
     12 C         138.7524  138.9549  165.9346 C.ar    1  UNL1        0.0714
     13 C         138.9566  137.7490  165.0661 C.ar    1  UNL1        0.0035
     14 C         139.6816  137.8799  163.7596 C.ar    1  UNL1       -0.0043
     15 C         138.0273  138.8240  167.2412 C.3     1  UNL1        0.4186
     16 F         137.5353  138.9550  168.6522 F       1  UNL1       -0.1659
     17 F         137.0036  137.7584  166.9832 F       1  UNL1       -0.1659
     18 F         138.9015  139.8896  167.8330 F       1  UNL1       -0.1659
     19 C         140.8657  139.2508  162.1221 C.3     1  UNL1        0.0729
     20 C         141.6394  139.0706  163.3945 C.3     1  UNL1        0.0294
     21 C         143.1263  138.8787  163.3473 C.3     1  UNL1        0.0666
     22 S         143.9893  139.4333  164.4417 S.3     1  UNL1       -0.0756
     23 C         142.4305  140.8790  167.6890 C.ar    1  UNL1        0.2029
     24 N         142.5525  139.4276  168.0473 N.ar    1  UNL1       -0.1250
     25 N         143.1512  138.7093  166.8745 N.ar    1  UNL1       -0.1220
     26 C         143.3993  139.7169  165.7913 C.ar    1  UNL1        0.1933
     27 N         142.9539  141.0578  166.2948 N.ar    1  UNL1       -0.2860
     28 C         142.8734  142.4860  165.8432 C.3     1  UNL1        0.1341
     29 C         144.0672  142.4657  170.0242 C.3     1  UNL1        0.0556
     30 C         142.6338  142.6909  169.6436 C.ar    1  UNL1        0.1001
     31 N         141.7011  143.6850  170.2697 N.ar    1  UNL1       -0.2085
     32 C         140.3724  143.5700  169.5832 C.ar    1  UNL1        0.2849
     33 O         140.4839  142.5049  168.5329 O.2     1  UNL1       -0.4283
     34 C         141.8816  141.9615  168.5703 C.ar    1  UNL1        0.1964
@<TRIPOS>BOND
     1    29    30    1
     2    30    31   ar
     3    31    32   ar
     4    32    33   ar
     5    33    34   ar
     6    34    23    1
     7    23    24   ar
     8    24    25   ar
     9    25    26   ar
    10    26    22    1
    11    22    21    1
    12    21    20    1
    13    20    19    1
    14    19     1    1
    15     1     2    1
    16     2     3    1
    17     3     4    1
    18     5     4    1
    19     5     6    1
    20     6     7    1
    21     7     9    1
    22     9    10   ar
    23    10    11   ar
    24    11    12   ar
    25    12    15    1
    26    15    16    1
    27    15    17    1
    28    15    18    1
    29    12    13   ar
    30    13    14   ar
    31     7     8    1
    32    26    27   ar
    33    27    28    1
    34    34    30   ar
    35    27    23   ar
    36     5     1    1
    37    14     9   ar
    38     8     2    1
@<TRIPOS>MOLECULE
*****
 34 38 0 0 0
SMALL
GASTEIGER

@<TRIPOS>ATOM
      1 N         141.4619  140.9350  168.1426 N.3     1  UNL1       -0.2752
      2 C         142.4601  139.8173  168.0764 C.3     1  UNL1        0.0578
      3 C         142.4907  139.1432  169.4161 C.3     1  UNL1        0.0173
      4 C         141.5114  139.8443  170.3102 C.3     1  UNL1        0.0173
      5 C         140.8756  140.9517  169.5231 C.3     1  UNL1        0.0578
      6 C         140.4136  141.9681  168.5070 C.3     1  UNL1        0.0203
      7 C         141.0865  141.8292  167.1736 C.3     1  UNL1        0.0250
      8 C         142.1098  140.7538  166.9583 C.3     1  UNL1        0.0203
      9 C         140.7361  142.7658  166.0555 C.ar    1  UNL1       -0.0224
     10 C         139.5031  143.6152  166.1472 C.ar    1  UNL1       -0.0043
     11 C         139.1528  144.5516  165.0291 C.ar    1  UNL1        0.0035
     12 C         140.0353  144.6388  163.8194 C.ar    1  UNL1        0.0714
     13 C         141.2682  143.7894  163.7277 C.ar    1  UNL1        0.0035
     14 C         141.6186  142.8529  164.8457 C.ar    1  UNL1       -0.0043
     15 C         139.6848  145.5754  162.7013 C.3     1  UNL1        0.4186
     16 F         139.6837  146.6145  161.6194 F       1  UNL1       -0.1659
     17 F         138.2417  145.2795  162.4188 F       1  UNL1       -0.1659
     18 F         141.0848  146.1139  162.7136 F       1  UNL1       -0.1659
     19 C         141.1115  141.8715  167.0244 C.3     1  UNL1        0.0729
     20 C         140.2149  141.4110  165.9135 C.3     1  UNL1        0.0294
     21 C         139.2068  140.3288  166.1632 C.3     1  UNL1        0.0666
     22 S         138.6462  139.5461  165.0129 S.3     1  UNL1       -0.0756
     23 C         141.0368  138.3557  162.1964 C.ar    1  UNL1        0.2029
     24 N         140.9438  137.1188  163.0396 N.ar    1  UNL1       -0.1250
     25 N         140.0370  137.4141  164.1974 N.ar    1  UNL1       -0.1220
     26 C         139.5695  138.8336  164.0696 C.ar    1  UNL1        0.1933
     27 N         140.1874  139.4156  162.8329 N.ar    1  UNL1       -0.2860
     28 C         140.2158  140.6993  162.0574 C.3     1  UNL1        0.1341
     29 C         144.1362  139.3590  162.0045 C.3     1  UNL1        0.0556
     30 C         143.2630  138.9676  160.8493 C.ar    1  UNL1        0.1001
     31 N         143.6613  138.9686  159.4032 N.ar    1  UNL1       -0.2085
     32 C         142.4828  138.5081  158.5976 C.ar    1  UNL1        0.2849
     33 O         141.3562  138.2224  159.5459 O.2     1  UNL1       -0.4283
     34 C         141.8384  138.5064  160.9376 C.ar    1  UNL1        0.1964
@<TRIPOS>BOND
     1    29    30    1
     2    30    31   ar
     3    31    32   ar
     4    32    33   ar
     5    33    34   ar
     6    34    23    1
     7    23    24   ar
     8    24    25   ar
     9    25    26   ar
    10    26    22    1
    11    22    21    1
    12    21    20    1
    13    20    19    1
    14    19     1    1
    15     1     2    1
    16     2     3    1
    17     3     4    1
    18     5     4    1
    19     5     6    1
    20     6     7    1
    21     7     9    1
    22     9    10   ar
    23    10    11   ar
    24    11    12   ar
    25    12    15    1
    26    15    16    1
    27    15    17    1
    28    15    18    1
    29    12    13   ar
    30    13    14   ar
    31     7     8    1
    32    26    27   ar
    33    27    28    1
    34    34    30   ar
    35    27    23   ar
    36     5     1    1
    37    14     9   ar
    38     8     2    1
