@<TRIPOS>MOLECULE
*****
 36 40 0 0 0
SMALL
GASTEIGER

@<TRIPOS>ATOM
      1 C         139.7564  139.3138  161.9279 C.ar    1  UNL1        0.2221
      2 N         140.7038  138.2940  161.3690 N.ar    1  UNL1       -0.2119
      3 C         141.6885  137.6111  162.2713 C.ar    1  UNL1        0.1050
      4 C         141.7257  137.9480  163.7325 C.ar    1  UNL1        0.0596
      5 C         140.7782  138.9678  164.2914 C.ar    1  UNL1        0.1682
      6 N         139.7936  139.6507  163.3891 N.ar    1  UNL1       -0.1944
      7 N         140.8154  139.3048  165.7526 N.ar    1  UNL1       -0.2112
      8 C         142.0331  139.2973  166.6284 C.ar    1  UNL1        0.1003
      9 C         141.6117  139.6962  168.0116 C.ar    1  UNL1        0.0283
     10 C         140.1335  139.9502  167.9906 C.ar    1  UNL1        0.0782
     11 C         139.2947  140.3721  169.1604 C.3     1  UNL1        0.0537
     12 N         139.6414  139.7083  166.5944 N.ar    1  UNL1       -0.1684
     13 C         142.5106  139.8195  169.2061 C.3     1  UNL1        0.1021
     14 N         142.7626  141.1650  169.8194 N.3     1  UNL1       -0.2647
     15 C         142.1806  141.9321  170.9696 C.3     1  UNL1        0.1034
     16 C         143.1189  143.0678  170.6869 C.3     1  UNL1        0.1423
     17 O         143.3709  144.4133  171.3002 O.3     1  UNL1       -0.3816
     18 C         143.7009  142.3007  169.5367 C.3     1  UNL1        0.1034
     19 H         144.0806  144.8622  170.8147 H       1  UNL1        0.2105
     20 N         138.7717  139.9967  161.0256 N.pl3   1  UNL1       -0.2825
     21 H         137.8733  139.6147  160.8986 H       1  UNL1        0.1551
     22 C         141.7248  144.3928  160.4114 C.ar    1  UNL1        0.1554
     23 N         141.6371  145.4504  159.3514 N.ar    1  UNL1       -0.1646
     24 N         140.5243  145.0787  158.4168 N.ar    1  UNL1       -0.2487
     25 C         140.0881  145.8576  157.2113 C.3     1  UNL1        0.1537
     26 C         139.9243  143.7914  158.8992 C.ar    1  UNL1        0.0796
     27 C         138.7982  142.9504  158.3752 C.ar    1  UNL1        0.0201
     28 C         138.4140  141.6855  159.0840 C.ar    1  UNL1        0.0162
     29 C         139.1560  141.2616  160.3168 C.ar    1  UNL1        0.0506
     30 C         140.2821  142.1026  160.8408 C.ar    1  UNL1        0.0179
     31 C         140.6662  143.3675  160.1320 C.ar    1  UNL1        0.0423
     32 C         143.3742  145.0896  163.9533 C.3     1  UNL1        0.1110
     33 N         142.3991  145.1170  162.8138 N.am    1  UNL1       -0.2979
     34 C         142.6999  144.3653  161.5509 C.2     1  UNL1        0.2654
     35 O         143.9757  143.5863  161.4278 O.2     1  UNL1       -0.2684
     36 H         141.5617  145.6284  162.8947 H       1  UNL1        0.1498
@<TRIPOS>BOND
     1    32    33    1
     2    33    34   am
     3    34    35    2
     4    34    22    1
     5    22    23   ar
     6    23    24   ar
     7    24    25    1
     8    24    26   ar
     9    26    27   ar
    10    27    28   ar
    11    28    29   ar
    12    29    20    1
    13    20     1    1
    14     1     2   ar
    15     2     3   ar
    16     3     4   ar
    17     4     5   ar
    18     5     7    1
    19     7     8   ar
    20     8     9   ar
    21     9    13    1
    22    13    14    1
    23    14    15    1
    24    15    16    1
    25    16    17    1
    26    16    18    1
    27     9    10   ar
    28    10    11    1
    29    10    12   ar
    30     5     6   ar
    31    29    30   ar
    32    30    31   ar
    33    31    22   ar
    34    31    26   ar
    35     6     1   ar
    36    12     7   ar
    37    18    14    1
    38    33    36    1
    39    20    21    1
    40    17    19    1
@<TRIPOS>MOLECULE
*****
 36 40 0 0 0
SMALL
GASTEIGER

@<TRIPOS>ATOM
      1 C         144.3584  141.5174  161.7331 C.ar    1  UNL1        0.2221
      2 N         145.6542  141.7385  162.4556 N.ar    1  UNL1       -0.2119
      3 C         145.7081  141.6262  163.9505 C.ar    1  UNL1        0.1050
      4 C         144.4662  141.2928  164.7228 C.ar    1  UNL1        0.0596
      5 C         143.1704  141.0717  164.0003 C.ar    1  UNL1        0.1682
      6 N         143.1164  141.1840  162.5055 N.ar    1  UNL1       -0.1944
      7 N         141.9285  140.7384  164.7727 N.ar    1  UNL1       -0.2112
      8 C         141.8231  140.6193  166.2642 C.ar    1  UNL1        0.1003
      9 C         140.4034  140.2729  166.6025 C.ar    1  UNL1        0.0283
     10 C         139.6313  140.1779  165.3199 C.ar    1  UNL1        0.0782
     11 C         138.1728  139.8523  165.1908 C.3     1  UNL1        0.0537
     12 N         140.5739  140.4656  164.1890 N.ar    1  UNL1       -0.1684
     13 C         139.8525  140.0590  167.9811 C.3     1  UNL1        0.1021
     14 N         140.5124  140.7080  169.1615 N.3     1  UNL1       -0.2647
     15 C         140.2390  141.9267  169.9922 C.3     1  UNL1        0.1034
     16 C         141.4457  141.6258  170.8308 C.3     1  UNL1        0.1423
     17 O         142.1056  142.2747  172.0113 O.3     1  UNL1       -0.3816
     18 C         141.7191  140.4071  170.0002 C.3     1  UNL1        0.1034
     19 H         142.8860  141.7595  172.2691 H       1  UNL1        0.2105
     20 N         144.3044  141.6297  160.2383 N.pl3   1  UNL1       -0.2825
     21 H         144.8564  141.0358  159.6799 H       1  UNL1        0.1551
     22 C         140.2762  145.1219  160.2791 C.ar    1  UNL1        0.1554
     23 N         139.7600  145.9832  159.1647 N.ar    1  UNL1       -0.1646
     24 N         140.5904  145.7107  157.9456 N.ar    1  UNL1       -0.2487
     25 C         140.4212  146.3547  156.6015 C.3     1  UNL1        0.1537
     26 C         141.6198  144.6810  158.3065 C.ar    1  UNL1        0.0796
     27 C         142.7088  144.0278  157.5083 C.ar    1  UNL1        0.0201
     28 C         143.6037  143.0107  158.1522 C.ar    1  UNL1        0.0162
     29 C         143.4095  142.6468  159.5944 C.ar    1  UNL1        0.0506
     30 C         142.3204  143.3001  160.3926 C.ar    1  UNL1        0.0179
     31 C         141.4256  144.3172  159.7487 C.ar    1  UNL1        0.0423
     32 C         137.8981  144.3330  163.3569 C.3     1  UNL1        0.1110
     33 N         138.4367  144.3811  161.9577 N.am    1  UNL1       -0.2979
     34 C         139.7376  145.0738  161.6782 C.2     1  UNL1        0.2654
     35 O         140.4996  145.7184  162.7978 O.2     1  UNL1       -0.2684
     36 H         137.9365  143.9580  161.2229 H       1  UNL1        0.1498
@<TRIPOS>BOND
     1    32    33    1
     2    33    34   am
     3    34    35    2
     4    34    22    1
     5    22    23   ar
     6    23    24   ar
     7    24    25    1
     8    24    26   ar
     9    26    27   ar
    10    27    28   ar
    11    28    29   ar
    12    29    20    1
    13    20     1    1
    14     1     2   ar
    15     2     3   ar
    16     3     4   ar
    17     4     5   ar
    18     5     7    1
    19     7     8   ar
    20     8     9   ar
    21     9    13    1
    22    13    14    1
    23    14    15    1
    24    15    16    1
    25    16    17    1
    26    16    18    1
    27     9    10   ar
    28    10    11    1
    29    10    12   ar
    30     5     6   ar
    31    29    30   ar
    32    30    31   ar
    33    31    22   ar
    34    31    26   ar
    35     6     1   ar
    36    12     7   ar
    37    18    14    1
    38    33    36    1
    39    20    21    1
    40    17    19    1
@<TRIPOS>MOLECULE
*****
 36 40 0 0 0
SMALL
GASTEIGER

@<TRIPOS>ATOM
      1 C         140.3493  144.4396  162.2488 C.ar    1  UNL1        0.2221
      2 N         139.0702  145.1785  161.9882 N.ar    1  UNL1       -0.2119
      3 C         137.8419  144.8563  162.7867 C.ar    1  UNL1        0.1050
      4 C         137.8927  143.7954  163.8457 C.ar    1  UNL1        0.0596
      5 C         139.1718  143.0565  164.1064 C.ar    1  UNL1        0.1682
      6 N         140.4001  143.3786  163.3080 N.ar    1  UNL1       -0.1944
      7 N         139.2227  141.9955  165.1655 N.ar    1  UNL1       -0.2112
      8 C         140.1220  141.9905  166.3660 C.ar    1  UNL1        0.1003
      9 C         139.8383  140.7451  167.1525 C.ar    1  UNL1        0.0283
     10 C         138.7635  139.9805  166.4381 C.ar    1  UNL1        0.0782
     11 C         138.1729  138.6727  166.8750 C.3     1  UNL1        0.0537
     12 N         138.3831  140.7534  165.2101 N.ar    1  UNL1       -0.1684
     13 C         140.5111  140.3362  168.4292 C.3     1  UNL1        0.1021
     14 N         141.3496  141.3240  169.1849 N.3     1  UNL1       -0.2647
     15 C         142.7978  141.7150  169.1723 C.3     1  UNL1        0.1034
     16 C         142.5356  142.7210  170.2535 C.3     1  UNL1        0.1423
     17 O         143.3741  143.7088  171.0092 O.3     1  UNL1       -0.3816
     18 C         141.0875  142.3301  170.2662 C.3     1  UNL1        0.1034
     19 H         142.8176  144.1869  171.6437 H       1  UNL1        0.2105
     20 N         141.5776  144.7617  161.4504 N.pl3   1  UNL1       -0.2825
     21 H         142.0033  145.6452  161.5369 H       1  UNL1        0.1551
     22 C         143.8503  140.0600  160.3769 C.ar    1  UNL1        0.1554
     23 N         144.2698  139.4927  159.0532 N.ar    1  UNL1       -0.1646
     24 N         143.9401  140.5000  157.9918 N.ar    1  UNL1       -0.2487
     25 C         144.1898  140.3448  156.5209 C.3     1  UNL1        0.1537
     26 C         143.3168  141.6899  158.6595 C.ar    1  UNL1        0.0796
     27 C         142.7926  142.9858  158.1157 C.ar    1  UNL1        0.0201
     28 C         142.2129  144.0097  159.0460 C.ar    1  UNL1        0.0162
     29 C         142.1573  143.7377  160.5201 C.ar    1  UNL1        0.0506
     30 C         142.6815  142.4418  161.0639 C.ar    1  UNL1        0.0179
     31 C         143.2612  141.4179  160.1336 C.ar    1  UNL1        0.0423
     32 C         144.9372  139.3696  164.1309 C.3     1  UNL1        0.1110
     33 N         144.7931  140.0422  162.7979 N.am    1  UNL1       -0.2979
     34 C         143.9944  139.3874  161.7099 C.2     1  UNL1        0.2654
     35 O         143.3400  138.0602  161.9551 O.2     1  UNL1       -0.2684
     36 H         145.2226  140.9133  162.6370 H       1  UNL1        0.1498
@<TRIPOS>BOND
     1    32    33    1
     2    33    34   am
     3    34    35    2
     4    34    22    1
     5    22    23   ar
     6    23    24   ar
     7    24    25    1
     8    24    26   ar
     9    26    27   ar
    10    27    28   ar
    11    28    29   ar
    12    29    20    1
    13    20     1    1
    14     1     2   ar
    15     2     3   ar
    16     3     4   ar
    17     4     5   ar
    18     5     7    1
    19     7     8   ar
    20     8     9   ar
    21     9    13    1
    22    13    14    1
    23    14    15    1
    24    15    16    1
    25    16    17    1
    26    16    18    1
    27     9    10   ar
    28    10    11    1
    29    10    12   ar
    30     5     6   ar
    31    29    30   ar
    32    30    31   ar
    33    31    22   ar
    34    31    26   ar
    35     6     1   ar
    36    12     7   ar
    37    18    14    1
    38    33    36    1
    39    20    21    1
    40    17    19    1
@<TRIPOS>MOLECULE
*****
 36 40 0 0 0
SMALL
GASTEIGER

@<TRIPOS>ATOM
      1 C         141.1271  144.9016  161.5473 C.ar    1  UNL1        0.2221
      2 N         139.9262  145.5553  162.1642 N.ar    1  UNL1       -0.2119
      3 C         139.4270  145.0964  163.5023 C.ar    1  UNL1        0.1050
      4 C         140.1286  143.9839  164.2233 C.ar    1  UNL1        0.0596
      5 C         141.3295  143.3302  163.6064 C.ar    1  UNL1        0.1682
      6 N         141.8287  143.7890  162.2684 N.ar    1  UNL1       -0.1944
      7 N         142.0311  142.2176  164.3274 N.ar    1  UNL1       -0.2112
      8 C         141.6768  141.6847  165.6840 C.ar    1  UNL1        0.1003
      9 C         142.6369  140.5804  166.0135 C.ar    1  UNL1        0.0283
     10 C         143.5847  140.4308  164.8604 C.ar    1  UNL1        0.0782
     11 C         144.7094  139.4428  164.7660 C.3     1  UNL1        0.0537
     12 N         143.2102  141.4427  163.8184 N.ar    1  UNL1       -0.1684
     13 C         142.6475  139.7682  167.2746 C.3     1  UNL1        0.1021
     14 N         142.5139  140.4474  168.6053 N.3     1  UNL1       -0.2647
     15 C         141.8744  140.0962  169.9159 C.3     1  UNL1        0.1034
     16 C         142.3249  141.4080  170.4872 C.3     1  UNL1        0.1423
     17 O         142.1912  142.0872  171.8179 O.3     1  UNL1       -0.3816
     18 C         142.9644  141.7592  169.1766 C.3     1  UNL1        0.1034
     19 H         142.6323  142.9506  171.7860 H       1  UNL1        0.2105
     20 N         141.6263  145.3604  160.2094 N.pl3   1  UNL1       -0.2825
     21 H         142.4209  145.9389  160.1524 H       1  UNL1        0.1551
     22 C         139.0759  146.3372  155.6306 C.ar    1  UNL1        0.1554
     23 N         138.5007  145.3659  154.6427 N.ar    1  UNL1       -0.1646
     24 N         138.7579  143.9790  155.1528 N.ar    1  UNL1       -0.2487
     25 C         138.3522  142.7021  154.4782 C.3     1  UNL1        0.1537
     26 C         139.4920  144.0930  156.4559 C.ar    1  UNL1        0.0796
     27 C         140.0069  143.0580  157.4117 C.ar    1  UNL1        0.0201
     28 C         140.7183  143.4805  158.6629 C.ar    1  UNL1        0.0162
     29 C         140.9148  144.9380  158.9581 C.ar    1  UNL1        0.0506
     30 C         140.4000  145.9730  158.0023 C.ar    1  UNL1        0.0179
     31 C         139.6885  145.5505  156.7512 C.ar    1  UNL1        0.0423
     32 C         138.4348  150.1520  156.5174 C.3     1  UNL1        0.1110
     33 N         138.4666  148.6566  156.6303 N.am    1  UNL1       -0.2979
     34 C         139.0440  147.8326  155.5177 C.2     1  UNL1        0.2654
     35 O         139.5894  148.5040  154.2923 O.2     1  UNL1       -0.2684
     36 H         138.1086  148.2159  157.4346 H       1  UNL1        0.1498
@<TRIPOS>BOND
     1    32    33    1
     2    33    34   am
     3    34    35    2
     4    34    22    1
     5    22    23   ar
     6    23    24   ar
     7    24    25    1
     8    24    26   ar
     9    26    27   ar
    10    27    28   ar
    11    28    29   ar
    12    29    20    1
    13    20     1    1
    14     1     2   ar
    15     2     3   ar
    16     3     4   ar
    17     4     5   ar
    18     5     7    1
    19     7     8   ar
    20     8     9   ar
    21     9    13    1
    22    13    14    1
    23    14    15    1
    24    15    16    1
    25    16    17    1
    26    16    18    1
    27     9    10   ar
    28    10    11    1
    29    10    12   ar
    30     5     6   ar
    31    29    30   ar
    32    30    31   ar
    33    31    22   ar
    34    31    26   ar
    35     6     1   ar
    36    12     7   ar
    37    18    14    1
    38    33    36    1
    39    20    21    1
    40    17    19    1
@<TRIPOS>MOLECULE
*****
 36 40 0 0 0
SMALL
GASTEIGER

@<TRIPOS>ATOM
      1 C         138.6277  139.6811  162.2167 C.ar    1  UNL1        0.2221
      2 N         138.6148  138.1899  162.3789 N.ar    1  UNL1       -0.2119
      3 C         139.4970  137.5392  163.4028 C.ar    1  UNL1        0.1050
      4 C         140.3920  138.3797  164.2645 C.ar    1  UNL1        0.0596
      5 C         140.4049  139.8709  164.1024 C.ar    1  UNL1        0.1682
      6 N         139.5227  140.5215  163.0785 N.ar    1  UNL1       -0.1944
      7 N         141.2998  140.7113  164.9641 N.ar    1  UNL1       -0.2112
      8 C         141.2504  140.8033  166.4604 C.ar    1  UNL1        0.1003
      9 C         142.3214  141.7562  166.9019 C.ar    1  UNL1        0.0283
     10 C         143.0328  142.2532  165.6783 C.ar    1  UNL1        0.0782
     11 C         144.1749  143.2253  165.6562 C.3     1  UNL1        0.0537
     12 N         142.4014  141.6074  164.4807 N.ar    1  UNL1       -0.1684
     13 C         142.6274  142.1441  168.3182 C.3     1  UNL1        0.1021
     14 N         141.5115  142.4911  169.2586 N.3     1  UNL1       -0.2647
     15 C         140.5681  143.6481  169.4039 C.3     1  UNL1        0.1034
     16 C         139.9333  142.9818  170.5885 C.3     1  UNL1        0.1423
     17 O         138.8174  143.3288  171.5288 O.3     1  UNL1       -0.3816
     18 C         140.8768  141.8248  170.4431 C.3     1  UNL1        0.1034
     19 H         138.7100  142.6175  172.1796 H       1  UNL1        0.2105
     20 N         137.7455  140.3317  161.1928 N.pl3   1  UNL1       -0.2825
     21 H         136.7908  140.0965  161.1448 H       1  UNL1        0.1551
     22 C         140.2787  144.8807  160.0464 C.ar    1  UNL1        0.1554
     23 N         140.6200  145.4611  158.7061 N.ar    1  UNL1       -0.1646
     24 N         140.1160  144.5207  157.6518 N.ar    1  UNL1       -0.2487
     25 C         140.2426  144.7088  156.1690 C.3     1  UNL1        0.1537
     26 C         139.4631  143.3590  158.3406 C.ar    1  UNL1        0.0796
     27 C         138.7901  142.1274  157.8113 C.ar    1  UNL1        0.0201
     28 C         138.2176  141.1184  158.7620 C.ar    1  UNL1        0.0162
     29 C         138.3181  141.3409  160.2420 C.ar    1  UNL1        0.0506
     30 C         138.9911  142.5725  160.7713 C.ar    1  UNL1        0.0179
     31 C         139.5636  143.5816  159.8206 C.ar    1  UNL1        0.0423
     32 C         141.9653  145.4884  163.5871 C.3     1  UNL1        0.1110
     33 N         141.6475  144.8770  162.2547 N.am    1  UNL1       -0.2979
     34 C         140.5965  145.4921  161.3788 C.2     1  UNL1        0.2654
     35 O         139.8634  146.7184  161.8353 O.2     1  UNL1       -0.2684
     36 H         142.1287  144.0721  161.9551 H       1  UNL1        0.1498
@<TRIPOS>BOND
     1    32    33    1
     2    33    34   am
     3    34    35    2
     4    34    22    1
     5    22    23   ar
     6    23    24   ar
     7    24    25    1
     8    24    26   ar
     9    26    27   ar
    10    27    28   ar
    11    28    29   ar
    12    29    20    1
    13    20     1    1
    14     1     2   ar
    15     2     3   ar
    16     3     4   ar
    17     4     5   ar
    18     5     7    1
    19     7     8   ar
    20     8     9   ar
    21     9    13    1
    22    13    14    1
    23    14    15    1
    24    15    16    1
    25    16    17    1
    26    16    18    1
    27     9    10   ar
    28    10    11    1
    29    10    12   ar
    30     5     6   ar
    31    29    30   ar
    32    30    31   ar
    33    31    22   ar
    34    31    26   ar
    35     6     1   ar
    36    12     7   ar
    37    18    14    1
    38    33    36    1
    39    20    21    1
    40    17    19    1
@<TRIPOS>MOLECULE
*****
 36 40 0 0 0
SMALL
GASTEIGER

@<TRIPOS>ATOM
      1 C         138.2203  140.4091  162.1110 C.ar    1  UNL1        0.2221
      2 N         138.0994  139.0253  161.5448 N.ar    1  UNL1       -0.2119
      3 C         138.4772  137.8377  162.3798 C.ar    1  UNL1        0.1050
      4 C         138.9757  138.0340  163.7808 C.ar    1  UNL1        0.0596
      5 C         139.0966  139.4178  164.3469 C.ar    1  UNL1        0.1682
      6 N         138.7189  140.6053  163.5121 N.ar    1  UNL1       -0.1944
      7 N         139.5951  139.6140  165.7479 N.ar    1  UNL1       -0.2112
      8 C         141.0281  139.5661  166.1887 C.ar    1  UNL1        0.1003
      9 C         141.0669  139.8151  167.6674 C.ar    1  UNL1        0.0283
     10 C         139.6578  140.0170  168.1405 C.ar    1  UNL1        0.0782
     11 C         139.2329  140.2944  169.5521 C.3     1  UNL1        0.0537
     12 N         138.7482  139.8927  166.9542 N.ar    1  UNL1       -0.1684
     13 C         142.2984  139.8553  168.5228 C.3     1  UNL1        0.1021
     14 N         142.6213  141.0872  169.3153 N.3     1  UNL1       -0.2647
     15 C         143.3282  142.3785  169.0275 C.3     1  UNL1        0.1034
     16 C         143.0779  142.8294  170.4361 C.3     1  UNL1        0.1423
     17 O         143.4008  144.0614  171.2286 O.3     1  UNL1       -0.3816
     18 C         142.3710  141.5381  170.7239 C.3     1  UNL1        0.1034
     19 H         143.0578  143.9646  172.1307 H       1  UNL1        0.2105
     20 N         137.8426  141.5966  161.2761 N.pl3   1  UNL1       -0.2825
     21 H         136.9384  141.9799  161.3459 H       1  UNL1        0.1551
     22 C         142.7477  143.2035  159.9415 C.ar    1  UNL1        0.1554
     23 N         143.2222  143.8324  158.6650 N.ar    1  UNL1       -0.1646
     24 N         142.0444  143.9585  157.7447 N.ar    1  UNL1       -0.2487
     25 C         142.0653  144.5344  156.3598 C.3     1  UNL1        0.1537
     26 C         140.8421  143.4076  158.4524 C.ar    1  UNL1        0.0796
     27 C         139.4076  143.2706  158.0359 C.ar    1  UNL1        0.0201
     28 C         138.4078  142.6669  158.9772 C.ar    1  UNL1        0.0162
     29 C         138.8425  142.2003  160.3349 C.ar    1  UNL1        0.0506
     30 C         140.2769  142.3373  160.7513 C.ar    1  UNL1        0.0179
     31 C         141.2767  142.9410  159.8101 C.ar    1  UNL1        0.0423
     32 C         144.7425  141.1542  162.6932 C.3     1  UNL1        0.1110
     33 N         143.8948  141.4658  161.4955 N.am    1  UNL1       -0.2979
     34 C         143.5954  142.8919  161.1391 C.2     1  UNL1        0.2654
     35 O         144.1437  144.0061  161.9804 O.2     1  UNL1       -0.2684
     36 H         143.5349  140.7345  160.9434 H       1  UNL1        0.1498
@<TRIPOS>BOND
     1    32    33    1
     2    33    34   am
     3    34    35    2
     4    34    22    1
     5    22    23   ar
     6    23    24   ar
     7    24    25    1
     8    24    26   ar
     9    26    27   ar
    10    27    28   ar
    11    28    29   ar
    12    29    20    1
    13    20     1    1
    14     1     2   ar
    15     2     3   ar
    16     3     4   ar
    17     4     5   ar
    18     5     7    1
    19     7     8   ar
    20     8     9   ar
    21     9    13    1
    22    13    14    1
    23    14    15    1
    24    15    16    1
    25    16    17    1
    26    16    18    1
    27     9    10   ar
    28    10    11    1
    29    10    12   ar
    30     5     6   ar
    31    29    30   ar
    32    30    31   ar
    33    31    22   ar
    34    31    26   ar
    35     6     1   ar
    36    12     7   ar
    37    18    14    1
    38    33    36    1
    39    20    21    1
    40    17    19    1
@<TRIPOS>MOLECULE
*****
 36 40 0 0 0
SMALL
GASTEIGER

@<TRIPOS>ATOM
      1 C         142.4115  144.1086  161.4558 C.ar    1  UNL1        0.2221
      2 N         143.8355  143.6743  161.2721 N.ar    1  UNL1       -0.2119
      3 C         144.4322  142.6512  162.1927 C.ar    1  UNL1        0.1050
      4 C         143.6051  142.0626  163.2969 C.ar    1  UNL1        0.0596
      5 C         142.1811  142.4969  163.4806 C.ar    1  UNL1        0.1682
      6 N         141.5843  143.5199  162.5601 N.ar    1  UNL1       -0.1944
      7 N         141.3540  141.9083  164.5847 N.ar    1  UNL1       -0.2112
      8 C         141.4950  142.2077  166.0478 C.ar    1  UNL1        0.1003
      9 C         140.4687  141.4014  166.7870 C.ar    1  UNL1        0.0283
     10 C         139.6934  140.6035  165.7808 C.ar    1  UNL1        0.0782
     11 C         138.5684  139.6583  166.0827 C.3     1  UNL1        0.0537
     12 N         140.2405  140.9168  164.4197 N.ar    1  UNL1       -0.1684
     13 C         140.2552  141.3941  168.2717 C.3     1  UNL1        0.1021
     14 N         141.3290  140.8747  169.1813 N.3     1  UNL1       -0.2647
     15 C         141.7985  139.5126  169.5984 C.3     1  UNL1        0.1034
     16 C         142.8475  140.1403  170.4676 C.3     1  UNL1        0.1423
     17 O         143.9213  139.6210  171.3772 O.3     1  UNL1       -0.3816
     18 C         142.3779  141.5025  170.0506 C.3     1  UNL1        0.1034
     19 H         144.4025  140.3669  171.7683 H       1  UNL1        0.2105
     20 N         141.8148  145.1316  160.5354 N.pl3   1  UNL1       -0.2825
     21 H         141.8655  146.0880  160.7632 H       1  UNL1        0.1551
     22 C         139.3329  146.0657  155.9102 C.ar    1  UNL1        0.1554
     23 N         138.8043  145.0851  154.9058 N.ar    1  UNL1       -0.1646
     24 N         139.0882  143.7026  155.4139 N.ar    1  UNL1       -0.2487
     25 C         138.7308  142.4192  154.7246 C.3     1  UNL1        0.1537
     26 C         139.7923  143.8289  156.7324 C.ar    1  UNL1        0.0796
     27 C         140.3152  142.8026  157.6933 C.ar    1  UNL1        0.0201
     28 C         140.9893  143.2369  158.9609 C.ar    1  UNL1        0.0162
     29 C         141.1406  144.6974  159.2677 C.ar    1  UNL1        0.0506
     30 C         140.6176  145.7236  158.3068 C.ar    1  UNL1        0.0179
     31 C         139.9435  145.2893  157.0392 C.ar    1  UNL1        0.0423
     32 C         138.4851  149.8495  156.7555 C.3     1  UNL1        0.1110
     33 N         138.5548  148.3549  156.8613 N.am    1  UNL1       -0.2979
     34 C         139.2632  147.5604  155.8044 C.2     1  UNL1        0.2654
     35 O         139.9017  148.2605  154.6417 O.2     1  UNL1       -0.2684
     36 H         138.1357  147.8954  157.6245 H       1  UNL1        0.1498
@<TRIPOS>BOND
     1    32    33    1
     2    33    34   am
     3    34    35    2
     4    34    22    1
     5    22    23   ar
     6    23    24   ar
     7    24    25    1
     8    24    26   ar
     9    26    27   ar
    10    27    28   ar
    11    28    29   ar
    12    29    20    1
    13    20     1    1
    14     1     2   ar
    15     2     3   ar
    16     3     4   ar
    17     4     5   ar
    18     5     7    1
    19     7     8   ar
    20     8     9   ar
    21     9    13    1
    22    13    14    1
    23    14    15    1
    24    15    16    1
    25    16    17    1
    26    16    18    1
    27     9    10   ar
    28    10    11    1
    29    10    12   ar
    30     5     6   ar
    31    29    30   ar
    32    30    31   ar
    33    31    22   ar
    34    31    26   ar
    35     6     1   ar
    36    12     7   ar
    37    18    14    1
    38    33    36    1
    39    20    21    1
    40    17    19    1
@<TRIPOS>MOLECULE
*****
 36 40 0 0 0
SMALL
GASTEIGER

@<TRIPOS>ATOM
      1 C         142.2246  144.2823  161.9988 C.ar    1  UNL1        0.2221
      2 N         143.6705  144.4916  162.3384 N.ar    1  UNL1       -0.2119
      3 C         144.2547  143.8478  163.5609 C.ar    1  UNL1        0.1050
      4 C         143.3928  142.9948  164.4438 C.ar    1  UNL1        0.0596
      5 C         141.9468  142.7855  164.1042 C.ar    1  UNL1        0.1682
      6 N         141.3627  143.4292  162.8818 N.ar    1  UNL1       -0.1944
      7 N         141.0850  141.9324  164.9871 N.ar    1  UNL1       -0.2112
      8 C         141.2390  141.7603  166.4692 C.ar    1  UNL1        0.1003
      9 C         140.1670  140.8233  166.9410 C.ar    1  UNL1        0.0283
     10 C         139.3504  140.4162  165.7504 C.ar    1  UNL1        0.0782
     11 C         138.1731  139.4867  165.7648 C.3     1  UNL1        0.0537
     12 N         139.9177  141.1017  164.5428 N.ar    1  UNL1       -0.1684
     13 C         139.9497  140.3724  168.3550 C.3     1  UNL1        0.1021
     14 N         141.1251  140.1453  169.2588 N.3     1  UNL1       -0.2647
     15 C         142.4135  139.3846  169.1524 C.3     1  UNL1        0.1034
     16 C         142.7874  139.8242  170.5370 C.3     1  UNL1        0.1423
     17 O         143.9628  139.5971  171.4408 O.3     1  UNL1       -0.3816
     18 C         141.4990  140.5849  170.6434 C.3     1  UNL1        0.1034
     19 H         143.8219  140.0656  172.2784 H       1  UNL1        0.2105
     20 N         141.6404  144.9260  160.7764 N.pl3   1  UNL1       -0.2825
     21 H         141.8500  145.8647  160.5666 H       1  UNL1        0.1551
     22 C         138.3450  140.8740  159.7063 C.ar    1  UNL1        0.1554
     23 N         137.6290  140.5494  158.4288 N.ar    1  UNL1       -0.1646
     24 N         137.9908  141.5952  157.4162 N.ar    1  UNL1       -0.2487
     25 C         137.4993  141.6590  156.0004 C.3     1  UNL1        0.1537
     26 C         138.9303  142.5661  158.0678 C.ar    1  UNL1        0.0796
     27 C         139.6148  143.7985  157.5553 C.ar    1  UNL1        0.0201
     28 C         140.5181  144.5851  158.4581 C.ar    1  UNL1        0.0162
     29 C         140.7370  144.1393  159.8735 C.ar    1  UNL1        0.0506
     30 C         140.0526  142.9069  160.3861 C.ar    1  UNL1        0.0179
     31 C         139.1492  142.1203  159.4832 C.ar    1  UNL1        0.0423
     32 C         138.9387  138.0093  162.3881 C.3     1  UNL1        0.1110
     33 N         139.0137  138.7935  161.1116 N.am    1  UNL1       -0.2979
     34 C         138.2699  140.0898  160.9828 C.2     1  UNL1        0.2654
     35 O         137.4511  140.6018  162.1305 O.2     1  UNL1       -0.2684
     36 H         139.5512  138.4574  160.3583 H       1  UNL1        0.1498
@<TRIPOS>BOND
     1    32    33    1
     2    33    34   am
     3    34    35    2
     4    34    22    1
     5    22    23   ar
     6    23    24   ar
     7    24    25    1
     8    24    26   ar
     9    26    27   ar
    10    27    28   ar
    11    28    29   ar
    12    29    20    1
    13    20     1    1
    14     1     2   ar
    15     2     3   ar
    16     3     4   ar
    17     4     5   ar
    18     5     7    1
    19     7     8   ar
    20     8     9   ar
    21     9    13    1
    22    13    14    1
    23    14    15    1
    24    15    16    1
    25    16    17    1
    26    16    18    1
    27     9    10   ar
    28    10    11    1
    29    10    12   ar
    30     5     6   ar
    31    29    30   ar
    32    30    31   ar
    33    31    22   ar
    34    31    26   ar
    35     6     1   ar
    36    12     7   ar
    37    18    14    1
    38    33    36    1
    39    20    21    1
    40    17    19    1
@<TRIPOS>MOLECULE
*****
 36 40 0 0 0
SMALL
GASTEIGER

@<TRIPOS>ATOM
      1 C         138.8396  142.8378  161.3395 C.ar    1  UNL1        0.2221
      2 N         138.6426  144.3008  161.6056 N.ar    1  UNL1       -0.2119
      3 C         138.5022  144.7946  163.0150 C.ar    1  UNL1        0.1050
      4 C         138.5588  143.8254  164.1584 C.ar    1  UNL1        0.0596
      5 C         138.7557  142.3623  163.8924 C.ar    1  UNL1        0.1682
      6 N         138.8962  141.8685  162.4830 N.ar    1  UNL1       -0.1944
      7 N         138.8123  141.3931  165.0358 N.ar    1  UNL1       -0.2112
      8 C         139.6958  141.5041  166.2429 C.ar    1  UNL1        0.1003
      9 C         139.4249  140.3223  167.1259 C.ar    1  UNL1        0.0283
     10 C         138.3739  139.4808  166.4645 C.ar    1  UNL1        0.0782
     11 C         137.8019  138.2020  167.0008 C.3     1  UNL1        0.0537
     12 N         137.9953  140.1426  165.1728 N.ar    1  UNL1       -0.1684
     13 C         140.0884  140.0327  168.4397 C.3     1  UNL1        0.1021
     14 N         140.9107  141.0907  169.1139 N.3     1  UNL1       -0.2647
     15 C         142.3366  141.5465  169.0191 C.3     1  UNL1        0.1034
     16 C         142.0738  142.5868  170.0673 C.3     1  UNL1        0.1423
     17 O         142.8961  143.6447  170.7414 O.3     1  UNL1       -0.3816
     18 C         140.6479  142.1310  170.1621 C.3     1  UNL1        0.1034
     19 H         142.3453  144.1247  171.3795 H       1  UNL1        0.2105
     20 N         138.9800  142.3440  159.9302 N.pl3   1  UNL1       -0.2825
     21 H         138.1901  142.0165  159.4423 H       1  UNL1        0.1551
     22 C         144.3038  142.6274  159.9687 C.ar    1  UNL1        0.1554
     23 N         145.2624  142.5648  158.8168 N.ar    1  UNL1       -0.1646
     24 N         144.4640  142.3995  157.5578 N.ar    1  UNL1       -0.2487
     25 C         145.0200  142.2925  156.1687 C.3     1  UNL1        0.1537
     26 C         143.0118  142.3598  157.9316 C.ar    1  UNL1        0.0796
     27 C         141.7669  142.2137  157.1077 C.ar    1  UNL1        0.0201
     28 C         140.4230  142.2084  157.7739 C.ar    1  UNL1        0.0162
     29 C         140.3240  142.3493  159.2640 C.ar    1  UNL1        0.0506
     30 C         141.5689  142.4955  160.0879 C.ar    1  UNL1        0.0179
     31 C         142.9128  142.5007  159.4217 C.ar    1  UNL1        0.0423
     32 C         145.5586  141.7762  163.6363 C.3     1  UNL1        0.1110
     33 N         145.1909  141.6151  162.1910 N.am    1  UNL1       -0.2979
     34 C         144.6714  142.7885  161.4140 C.2     1  UNL1        0.2654
     35 O         144.5197  144.1226  162.0824 O.2     1  UNL1       -0.2684
     36 H         145.2906  140.7394  161.7523 H       1  UNL1        0.1498
@<TRIPOS>BOND
     1    32    33    1
     2    33    34   am
     3    34    35    2
     4    34    22    1
     5    22    23   ar
     6    23    24   ar
     7    24    25    1
     8    24    26   ar
     9    26    27   ar
    10    27    28   ar
    11    28    29   ar
    12    29    20    1
    13    20     1    1
    14     1     2   ar
    15     2     3   ar
    16     3     4   ar
    17     4     5   ar
    18     5     7    1
    19     7     8   ar
    20     8     9   ar
    21     9    13    1
    22    13    14    1
    23    14    15    1
    24    15    16    1
    25    16    17    1
    26    16    18    1
    27     9    10   ar
    28    10    11    1
    29    10    12   ar
    30     5     6   ar
    31    29    30   ar
    32    30    31   ar
    33    31    22   ar
    34    31    26   ar
    35     6     1   ar
    36    12     7   ar
    37    18    14    1
    38    33    36    1
    39    20    21    1
    40    17    19    1
