@<TRIPOS>MOLECULE
*****
 45 49 0 0 0
SMALL
GASTEIGER

@<TRIPOS>ATOM
      1 C         141.4566  143.1309  159.8048 C.2     1  UNL1        0.2469
      2 O         140.9097  141.9053  159.1348 O.2     1  UNL1       -0.2701
      3 N         142.6984  143.7844  159.2748 N.am    1  UNL1       -0.2985
      4 H         143.0573  144.5888  159.7145 H       1  UNL1        0.1498
      5 C         141.1978  141.7147  165.0179 C.2     1  UNL1        0.1184
      6 C         141.8928  141.1426  163.8180 C.2     1  UNL1       -0.0015
      7 C         141.7474  141.8054  162.4803 C.3     1  UNL1        0.0540
      8 C         140.9070  143.0402  162.3424 C.2     1  UNL1       -0.0076
      9 C         140.7616  143.7029  161.0046 C.2     1  UNL1        0.0665
     10 C         139.9212  144.9377  160.8667 C.2     1  UNL1        0.0931
     11 N         139.2262  145.5098  162.0667 N.am    1  UNL1       -0.1740
     12 C         139.3717  144.8471  163.4044 C.2     1  UNL1        0.2688
     13 O         138.6767  145.4191  164.6043 O.2     1  UNL1       -0.2680
     14 C         140.2120  143.6123  163.5423 C.2     1  UNL1        0.0533
     15 C         140.3575  142.9495  164.8800 C.2     1  UNL1        0.0239
     16 S         141.3432  141.0520  166.3557 S.O2    1  UNL1        0.0631
     17 O         142.2677  140.0365  165.7523 O.2     1  UNL1       -0.1528
     18 O         140.4187  142.0674  166.9592 O.2     1  UNL1       -0.1528
     19 C         142.8176  138.7852  170.3223 C.3     1  UNL1        0.0323
     20 C         141.6942  139.4521  169.5854 C.3     1  UNL1        0.1211
     21 O         140.7761  139.1818  170.7405 O.3     1  UNL1       -0.3839
     22 C         140.5706  140.1190  168.8486 C.3     1  UNL1        0.1240
     23 N         141.4886  140.3893  167.6935 N.3     1  UNL1       -0.1507
     24 C         142.6121  139.7224  168.4303 C.3     1  UNL1        0.1240
     25 H         141.2632  138.7170  171.4388 H       1  UNL1        0.2104
     26 C         143.3934  143.2123  158.0750 C.3     1  UNL1        0.1204
     27 C         144.6463  142.4059  158.2476 C.3     1  UNL1        0.1459
     28 O         145.9094  143.0717  158.7072 O.3     1  UNL1       -0.3813
     29 H         146.6191  142.4131  158.7660 H       1  UNL1        0.2105
     30 C         144.6361  140.9336  157.9607 C.3     1  UNL1        0.1034
     31 N         143.8123  140.0100  158.8082 N.3     1  UNL1       -0.2704
     32 C         144.0815  139.9025  160.2799 C.3     1  UNL1        0.0759
     33 C         143.2577  138.9789  161.1275 C.3     1  UNL1        0.0609
     34 C         142.1648  138.1628  160.5034 C.3     1  UNL1        0.1687
     35 C         141.8957  138.2703  159.0316 C.3     1  UNL1        0.0609
     36 C         142.7194  139.1939  158.1840 C.3     1  UNL1        0.0759
     37 O         141.3410  137.2392  161.3509 O.3     1  UNL1       -0.4790
     38 C         140.5093  137.7907  162.4709 C.ar    1  UNL1        0.1393
     39 C         140.6729  137.2529  163.8616 C.ar    1  UNL1        0.0378
     40 C         139.8413  137.8043  164.9815 C.ar    1  UNL1        0.0154
     41 C         138.8461  138.8934  164.7108 C.ar    1  UNL1        0.0684
     42 CL        138.0144  139.4449  165.8308 Cl      1  UNL1       -0.0814
     43 C         138.6826  139.4312  163.3201 C.ar    1  UNL1        0.0712
     44 CL        137.6873  140.5204  163.0494 Cl      1  UNL1       -0.0813
     45 C         139.5142  138.8798  162.2001 C.ar    1  UNL1        0.0491
@<TRIPOS>BOND
     1    19    20    1
     2    20    21    1
     3    20    22    1
     4    22    23    1
     5    23    16    1
     6    16    17    2
     7    16    18    2
     8    16     5    1
     9     5     6    2
    10     6     7    1
    11     7     8    1
    12     8     9    2
    13     9     1    1
    14     1     2    2
    15     1     3   am
    16     3    26    1
    17    26    27    1
    18    27    28    1
    19    27    30    1
    20    30    31    1
    21    31    32    1
    22    32    33    1
    23    33    34    1
    24    34    37    1
    25    37    38    1
    26    38    39   ar
    27    39    40   ar
    28    40    41   ar
    29    41    42    1
    30    41    43   ar
    31    43    44    1
    32    43    45   ar
    33    34    35    1
    34    35    36    1
    35     9    10    1
    36    10    11    2
    37    11    12    1
    38    12    13    2
    39    12    14    1
    40    14    15    2
    41    23    24    1
    42    24    20    1
    43    15     5    1
    44    14     8    1
    45    36    31    1
    46    45    38   ar
    47    21    25    1
    48     3     4    1
    49    28    29    1
@<TRIPOS>MOLECULE
*****
 45 49 0 0 0
SMALL
GASTEIGER

@<TRIPOS>ATOM
      1 C         141.5843  143.7441  159.4661 C.2     1  UNL1        0.2469
      2 O         141.9420  145.1947  159.3325 O.2     1  UNL1       -0.2701
      3 N         142.3521  142.7085  158.6992 N.am    1  UNL1       -0.2985
      4 H         142.1173  141.7565  158.7868 H       1  UNL1        0.1498
      5 C         141.2044  142.7074  164.7605 C.2     1  UNL1        0.1184
      6 C         142.3300  143.1225  163.8601 C.2     1  UNL1       -0.0015
      7 C         142.0814  143.3297  162.3955 C.3     1  UNL1        0.0540
      8 C         140.7072  143.1218  161.8312 C.2     1  UNL1       -0.0076
      9 C         140.4587  143.3291  160.3665 C.2     1  UNL1        0.0665
     10 C         139.0845  143.1212  159.8022 C.2     1  UNL1        0.0931
     11 N         137.9588  142.7062  160.7026 N.am    1  UNL1       -0.1740
     12 C         138.2074  142.4990  162.1673 C.2     1  UNL1        0.2688
     13 O         137.0818  142.0839  163.0676 O.2     1  UNL1       -0.2680
     14 C         139.5816  142.7068  162.7316 C.2     1  UNL1        0.0533
     15 C         139.8302  142.4996  164.1962 C.2     1  UNL1        0.0239
     16 S         141.4529  142.5002  166.2252 S.O2    1  UNL1        0.0631
     17 O         142.9261  142.6691  165.9992 O.2     1  UNL1       -0.1528
     18 O         139.9797  142.3313  166.4512 O.2     1  UNL1       -0.1528
     19 C         141.2079  142.0588  170.9992 C.3     1  UNL1        0.0323
     20 C         142.0528  141.9999  169.7612 C.3     1  UNL1        0.1211
     21 O         143.2493  141.6480  170.5946 O.3     1  UNL1       -0.3839
     22 C         142.8979  141.9411  168.5233 C.3     1  UNL1        0.1240
     23 N         141.7014  142.2930  167.6899 N.3     1  UNL1       -0.1507
     24 C         140.8564  142.3519  168.9278 C.3     1  UNL1        0.1240
     25 H         142.9921  141.6080  171.5291 H       1  UNL1        0.2104
     26 C         143.4778  143.1236  157.7988 C.3     1  UNL1        0.1204
     27 C         144.7218  142.2892  157.7201 C.3     1  UNL1        0.1459
     28 O         146.0667  142.9296  157.8963 O.3     1  UNL1       -0.3813
     29 H         146.7590  142.2549  157.8169 H       1  UNL1        0.2105
     30 C         144.6209  140.8145  157.4651 C.3     1  UNL1        0.1034
     31 N         143.9260  139.9279  158.4556 N.3     1  UNL1       -0.2704
     32 C         144.2198  140.0649  159.9201 C.3     1  UNL1        0.0759
     33 C         143.5248  139.1783  160.9106 C.3     1  UNL1        0.0609
     34 C         142.5360  138.1548  160.4366 C.3     1  UNL1        0.1687
     35 C         142.2422  138.0179  158.9720 C.3     1  UNL1        0.0609
     36 C         142.9372  138.9044  157.9815 C.3     1  UNL1        0.0759
     37 O         141.8411  137.2683  161.4270 O.3     1  UNL1       -0.4790
     38 C         140.8978  137.8610  162.4316 C.ar    1  UNL1        0.1393
     39 C         139.4779  138.1527  162.0461 C.ar    1  UNL1        0.0378
     40 C         138.5346  138.7454  163.0505 C.ar    1  UNL1        0.0154
     41 C         139.0114  139.0463  164.4405 C.ar    1  UNL1        0.0684
     42 CL        138.0681  139.6390  165.4451 Cl      1  UNL1       -0.0814
     43 C         140.4313  138.7546  164.8260 C.ar    1  UNL1        0.0712
     44 CL        140.9080  139.0556  166.2161 Cl      1  UNL1       -0.0813
     45 C         141.3745  138.1619  163.8216 C.ar    1  UNL1        0.0491
@<TRIPOS>BOND
     1    19    20    1
     2    20    21    1
     3    20    22    1
     4    22    23    1
     5    23    16    1
     6    16    17    2
     7    16    18    2
     8    16     5    1
     9     5     6    2
    10     6     7    1
    11     7     8    1
    12     8     9    2
    13     9     1    1
    14     1     2    2
    15     1     3   am
    16     3    26    1
    17    26    27    1
    18    27    28    1
    19    27    30    1
    20    30    31    1
    21    31    32    1
    22    32    33    1
    23    33    34    1
    24    34    37    1
    25    37    38    1
    26    38    39   ar
    27    39    40   ar
    28    40    41   ar
    29    41    42    1
    30    41    43   ar
    31    43    44    1
    32    43    45   ar
    33    34    35    1
    34    35    36    1
    35     9    10    1
    36    10    11    2
    37    11    12    1
    38    12    13    2
    39    12    14    1
    40    14    15    2
    41    23    24    1
    42    24    20    1
    43    15     5    1
    44    14     8    1
    45    36    31    1
    46    45    38   ar
    47    21    25    1
    48     3     4    1
    49    28    29    1
@<TRIPOS>MOLECULE
*****
 45 49 0 0 0
SMALL
GASTEIGER

@<TRIPOS>ATOM
      1 C         143.5635  142.0170  160.1255 C.2     1  UNL1        0.2469
      2 O         144.8626  142.7393  160.3266 O.2     1  UNL1       -0.2701
      3 N         142.6388  142.4308  159.0192 N.am    1  UNL1       -0.2985
      4 H         141.7861  141.9567  158.8872 H       1  UNL1        0.1498
      5 C         141.9066  141.7063  165.2643 C.2     1  UNL1        0.1184
      6 C         142.2811  142.8422  164.3592 C.2     1  UNL1       -0.0015
      7 C         142.7085  142.5672  162.9480 C.3     1  UNL1        0.0540
      8 C         142.7615  141.1561  162.4419 C.2     1  UNL1       -0.0076
      9 C         143.1890  140.8811  161.0306 C.2     1  UNL1        0.0665
     10 C         143.2420  139.4700  160.5245 C.2     1  UNL1        0.0931
     11 N         142.8675  138.3340  161.4297 N.am    1  UNL1       -0.1740
     12 C         142.4400  138.6091  162.8409 C.2     1  UNL1        0.2688
     13 O         142.0655  137.4731  163.7460 O.2     1  UNL1       -0.2680
     14 C         142.3870  140.0201  163.3470 C.2     1  UNL1        0.0533
     15 C         141.9596  140.2952  164.7582 C.2     1  UNL1        0.0239
     16 S         141.4791  141.9813  166.6756 S.O2    1  UNL1        0.0631
     17 O         140.4870  142.9905  166.1785 O.2     1  UNL1       -0.1528
     18 O         142.4712  140.9721  167.1728 O.2     1  UNL1       -0.1528
     19 C         140.5924  141.9304  171.3933 C.3     1  UNL1        0.0323
     20 C         140.4472  142.6452  170.0827 C.3     1  UNL1        0.1211
     21 O         139.6974  143.7491  170.7678 O.3     1  UNL1       -0.3839
     22 C         140.3019  143.3601  168.7720 C.3     1  UNL1        0.1240
     23 N         141.0517  142.2563  168.0869 N.3     1  UNL1       -0.1507
     24 C         141.1970  141.5414  169.3975 C.3     1  UNL1        0.1240
     25 H         139.6244  143.5512  171.7146 H       1  UNL1        0.2104
     26 C         143.0132  143.5668  158.1141 C.3     1  UNL1        0.1204
     27 C         142.0869  144.7358  157.9552 C.3     1  UNL1        0.1459
     28 O         142.6399  146.1292  157.9030 O.3     1  UNL1       -0.3813
     29 H         141.9123  146.7621  157.7983 H       1  UNL1        0.2105
     30 C         140.6076  144.5115  157.8486 C.3     1  UNL1        0.1034
     31 N         139.8426  143.9816  159.0250 N.3     1  UNL1       -0.2704
     32 C         138.8714  142.8533  158.8414 C.3     1  UNL1        0.0759
     33 C         138.1064  142.3233  160.0179 C.3     1  UNL1        0.0609
     34 C         138.3127  142.9216  161.3778 C.3     1  UNL1        0.1687
     35 C         139.2840  144.0499  161.5614 C.3     1  UNL1        0.0609
     36 C         140.0489  144.5799  160.3850 C.3     1  UNL1        0.0759
     37 O         137.5477  142.3917  162.5542 O.3     1  UNL1       -0.4790
     38 C         137.9477  141.0905  163.1845 C.ar    1  UNL1        0.1393
     39 C         138.2280  139.8949  162.3232 C.ar    1  UNL1        0.0378
     40 C         138.6279  138.5938  162.9534 C.ar    1  UNL1        0.0154
     41 C         138.7476  138.4884  164.4449 C.ar    1  UNL1        0.0684
     42 CL        139.1475  137.1872  165.0752 Cl      1  UNL1       -0.0814
     43 C         138.4673  139.6841  165.3062 C.ar    1  UNL1        0.0712
     44 CL        138.5870  139.5786  166.7977 Cl      1  UNL1       -0.0813
     45 C         138.0674  140.9851  164.6760 C.ar    1  UNL1        0.0491
@<TRIPOS>BOND
     1    19    20    1
     2    20    21    1
     3    20    22    1
     4    22    23    1
     5    23    16    1
     6    16    17    2
     7    16    18    2
     8    16     5    1
     9     5     6    2
    10     6     7    1
    11     7     8    1
    12     8     9    2
    13     9     1    1
    14     1     2    2
    15     1     3   am
    16     3    26    1
    17    26    27    1
    18    27    28    1
    19    27    30    1
    20    30    31    1
    21    31    32    1
    22    32    33    1
    23    33    34    1
    24    34    37    1
    25    37    38    1
    26    38    39   ar
    27    39    40   ar
    28    40    41   ar
    29    41    42    1
    30    41    43   ar
    31    43    44    1
    32    43    45   ar
    33    34    35    1
    34    35    36    1
    35     9    10    1
    36    10    11    2
    37    11    12    1
    38    12    13    2
    39    12    14    1
    40    14    15    2
    41    23    24    1
    42    24    20    1
    43    15     5    1
    44    14     8    1
    45    36    31    1
    46    45    38   ar
    47    21    25    1
    48     3     4    1
    49    28    29    1
@<TRIPOS>MOLECULE
*****
 45 49 0 0 0
SMALL
GASTEIGER

@<TRIPOS>ATOM
      1 C         142.0640  143.7908  160.1731 C.2     1  UNL1        0.2469
      2 O         141.8470  145.2750  160.1749 O.2     1  UNL1       -0.2701
      3 N         141.3010  142.9224  159.2171 N.am    1  UNL1       -0.2985
      4 H         141.4434  141.9482  159.2160 H       1  UNL1        0.1498
      5 C         141.9432  142.6570  165.4599 C.2     1  UNL1        0.1184
      6 C         140.9634  143.2728  164.5056 C.2     1  UNL1       -0.0015
      7 C         141.3303  143.4455  163.0615 C.3     1  UNL1        0.0540
      8 C         142.6770  143.0023  162.5716 C.2     1  UNL1       -0.0076
      9 C         143.0438  143.1749  161.1274 C.2     1  UNL1        0.0665
     10 C         144.3905  142.7317  160.6375 C.2     1  UNL1        0.0931
     11 N         145.3703  142.1158  161.5918 N.am    1  UNL1       -0.1740
     12 C         145.0035  141.9432  163.0359 C.2     1  UNL1        0.2688
     13 O         145.9833  141.3273  163.9902 O.2     1  UNL1       -0.2680
     14 C         143.6568  142.3864  163.5258 C.2     1  UNL1        0.0533
     15 C         143.2899  142.2138  164.9700 C.2     1  UNL1        0.0239
     16 S         141.5764  142.4843  166.9041 S.O2    1  UNL1        0.0631
     17 O         140.1601  142.8655  166.5900 O.2     1  UNL1       -0.1528
     18 O         142.9927  142.1031  167.2182 O.2     1  UNL1       -0.1528
     19 C         141.0004  141.0510  171.4494 C.3     1  UNL1        0.0323
     20 C         140.6909  142.0674  170.3906 C.3     1  UNL1        0.1211
     21 O         139.8626  142.8397  171.3742 O.3     1  UNL1       -0.3839
     22 C         140.3814  143.0839  169.3319 C.3     1  UNL1        0.1240
     23 N         141.2096  142.3116  168.3482 N.3     1  UNL1       -0.1507
     24 C         141.5192  141.2951  169.4070 C.3     1  UNL1        0.1240
     25 H         139.8728  142.3865  172.2318 H       1  UNL1        0.2104
     26 C         140.3212  143.5382  158.2629 C.3     1  UNL1        0.1204
     27 C         139.3742  142.6659  157.4934 C.3     1  UNL1        0.1459
     28 O         139.7040  142.2580  156.0881 O.3     1  UNL1       -0.3813
     29 H         138.9923  141.6995  155.7381 H       1  UNL1        0.2105
     30 C         138.0975  142.2013  158.1292 C.3     1  UNL1        0.1034
     31 N         138.1199  141.5957  159.5012 N.3     1  UNL1       -0.2704
     32 C         138.1526  142.4812  160.7114 C.3     1  UNL1        0.0759
     33 C         138.1751  141.8756  162.0836 C.3     1  UNL1        0.0609
     34 C         138.1648  140.3844  162.2455 C.3     1  UNL1        0.1687
     35 C         138.1322  139.4988  161.0351 C.3     1  UNL1        0.0609
     36 C         138.1097  140.1045  159.6631 C.3     1  UNL1        0.0759
     37 O         138.1873  139.7787  163.6175 O.3     1  UNL1       -0.4790
     38 C         139.4974  139.4697  164.2796 C.ar    1  UNL1        0.1393
     39 C         139.5775  139.3715  165.7743 C.ar    1  UNL1        0.0378
     40 C         140.8875  139.0626  166.4364 C.ar    1  UNL1        0.0154
     41 C         142.1173  138.8517  165.6039 C.ar    1  UNL1        0.0684
     42 CL        143.4274  138.5427  166.2660 Cl      1  UNL1       -0.0814
     43 C         142.0371  138.9499  164.1092 C.ar    1  UNL1        0.0712
     44 CL        143.2670  138.7391  163.2767 Cl      1  UNL1       -0.0813
     45 C         140.7271  139.2589  163.4471 C.ar    1  UNL1        0.0491
@<TRIPOS>BOND
     1    19    20    1
     2    20    21    1
     3    20    22    1
     4    22    23    1
     5    23    16    1
     6    16    17    2
     7    16    18    2
     8    16     5    1
     9     5     6    2
    10     6     7    1
    11     7     8    1
    12     8     9    2
    13     9     1    1
    14     1     2    2
    15     1     3   am
    16     3    26    1
    17    26    27    1
    18    27    28    1
    19    27    30    1
    20    30    31    1
    21    31    32    1
    22    32    33    1
    23    33    34    1
    24    34    37    1
    25    37    38    1
    26    38    39   ar
    27    39    40   ar
    28    40    41   ar
    29    41    42    1
    30    41    43   ar
    31    43    44    1
    32    43    45   ar
    33    34    35    1
    34    35    36    1
    35     9    10    1
    36    10    11    2
    37    11    12    1
    38    12    13    2
    39    12    14    1
    40    14    15    2
    41    23    24    1
    42    24    20    1
    43    15     5    1
    44    14     8    1
    45    36    31    1
    46    45    38   ar
    47    21    25    1
    48     3     4    1
    49    28    29    1
@<TRIPOS>MOLECULE
*****
 45 49 0 0 0
SMALL
GASTEIGER

@<TRIPOS>ATOM
      1 C         140.2968  143.6787  160.1004 C.2     1  UNL1        0.2469
      2 O         139.6460  145.0219  160.2497 O.2     1  UNL1       -0.2701
      3 N         139.6901  142.6479  159.1952 N.am    1  UNL1       -0.2985
      4 H         140.1172  141.7663  159.0972 H       1  UNL1        0.1498
      5 C         141.3289  142.0611  165.1568 C.2     1  UNL1        0.1184
      6 C         140.0715  142.3734  164.4010 C.2     1  UNL1       -0.0015
      7 C         140.1466  142.8085  162.9675 C.3     1  UNL1        0.0540
      8 C         141.4791  142.9313  162.2898 C.2     1  UNL1       -0.0076
      9 C         141.5542  143.3664  160.8562 C.2     1  UNL1        0.0665
     10 C         142.8867  143.4892  160.1785 C.2     1  UNL1        0.0931
     11 N         144.1442  143.1768  160.9344 N.am    1  UNL1       -0.1740
     12 C         144.0691  142.7417  162.3679 C.2     1  UNL1        0.2688
     13 O         145.3265  142.4294  163.1238 O.2     1  UNL1       -0.2680
     14 C         142.7365  142.6189  163.0456 C.2     1  UNL1        0.0533
     15 C         142.6614  142.1838  164.4792 C.2     1  UNL1        0.0239
     16 S         141.2538  141.6259  166.5904 S.O2    1  UNL1        0.0631
     17 O         139.7715  141.4397  166.4564 O.2     1  UNL1       -0.1528
     18 O         142.7361  141.8121  166.7245 O.2     1  UNL1       -0.1528
     19 C         141.4918  141.1694  171.3633 C.3     1  UNL1        0.0323
     20 C         141.0727  140.5755  170.0513 C.3     1  UNL1        0.1211
     21 O         140.5474  139.3661  170.7665 O.3     1  UNL1       -0.3839
     22 C         140.6535  139.9815  168.7392 C.3     1  UNL1        0.1240
     23 N         141.1788  141.1908  168.0240 N.3     1  UNL1       -0.1507
     24 C         141.5979  141.7848  169.3360 C.3     1  UNL1        0.1240
     25 H         140.6897  139.4675  171.7206 H       1  UNL1        0.2104
     26 C         138.4327  142.9602  158.4394 C.3     1  UNL1        0.1204
     27 C         137.9567  142.0337  157.3601 C.3     1  UNL1        0.1459
     28 O         137.9897  142.4730  155.9262 O.3     1  UNL1       -0.3813
     29 H         137.6501  141.7608  155.3620 H       1  UNL1        0.2105
     30 C         137.4477  140.6679  157.7145 C.3     1  UNL1        0.1034
     31 N         138.1077  139.8822  158.8086 N.3     1  UNL1       -0.2704
     32 C         139.3633  139.1118  158.5261 C.3     1  UNL1        0.0759
     33 C         140.0234  138.3261  159.6203 C.3     1  UNL1        0.0609
     34 C         139.4277  138.3108  160.9968 C.3     1  UNL1        0.1687
     35 C         138.1720  139.0813  161.2793 C.3     1  UNL1        0.0609
     36 C         137.5121  139.8669  160.1852 C.3     1  UNL1        0.0759
     37 O         140.0877  137.5251  162.0909 O.3     1  UNL1       -0.4790
     38 C         141.3769  138.0069  162.6876 C.ar    1  UNL1        0.1393
     39 C         142.4663  138.5285  161.7980 C.ar    1  UNL1        0.0378
     40 C         143.7554  139.0103  162.3946 C.ar    1  UNL1        0.0154
     41 C         143.9552  138.9706  163.8807 C.ar    1  UNL1        0.0684
     42 CL        145.2444  139.4524  164.4773 Cl      1  UNL1       -0.0814
     43 C         142.8658  138.4490  164.7702 C.ar    1  UNL1        0.0712
     44 CL        143.0656  138.4093  166.2563 Cl      1  UNL1       -0.0813
     45 C         141.5767  137.9672  164.1736 C.ar    1  UNL1        0.0491
@<TRIPOS>BOND
     1    19    20    1
     2    20    21    1
     3    20    22    1
     4    22    23    1
     5    23    16    1
     6    16    17    2
     7    16    18    2
     8    16     5    1
     9     5     6    2
    10     6     7    1
    11     7     8    1
    12     8     9    2
    13     9     1    1
    14     1     2    2
    15     1     3   am
    16     3    26    1
    17    26    27    1
    18    27    28    1
    19    27    30    1
    20    30    31    1
    21    31    32    1
    22    32    33    1
    23    33    34    1
    24    34    37    1
    25    37    38    1
    26    38    39   ar
    27    39    40   ar
    28    40    41   ar
    29    41    42    1
    30    41    43   ar
    31    43    44    1
    32    43    45   ar
    33    34    35    1
    34    35    36    1
    35     9    10    1
    36    10    11    2
    37    11    12    1
    38    12    13    2
    39    12    14    1
    40    14    15    2
    41    23    24    1
    42    24    20    1
    43    15     5    1
    44    14     8    1
    45    36    31    1
    46    45    38   ar
    47    21    25    1
    48     3     4    1
    49    28    29    1
@<TRIPOS>MOLECULE
*****
 45 49 0 0 0
SMALL
GASTEIGER

@<TRIPOS>ATOM
      1 C         143.3033  140.6128  159.9856 C.2     1  UNL1        0.2469
      2 O         144.0360  139.4186  160.5213 O.2     1  UNL1       -0.2701
      3 N         142.8420  140.6316  158.5583 N.am    1  UNL1       -0.2985
      4 H         142.3611  141.4154  158.2068 H       1  UNL1        0.1498
      5 C         141.7061  141.1298  165.1267 C.2     1  UNL1        0.1184
      6 C         141.9777  139.9545  164.2352 C.2     1  UNL1       -0.0015
      7 C         142.4195  140.1739  162.8187 C.3     1  UNL1        0.0540
      8 C         142.5898  141.5687  162.2937 C.2     1  UNL1       -0.0076
      9 C         143.0317  141.7881  160.8771 C.2     1  UNL1        0.0665
     10 C         143.2020  143.1829  160.3521 C.2     1  UNL1        0.0931
     11 N         142.9305  144.3582  161.2437 N.am    1  UNL1       -0.1740
     12 C         142.4886  144.1388  162.6602 C.2     1  UNL1        0.2688
     13 O         142.2171  145.3141  163.5518 O.2     1  UNL1       -0.2680
     14 C         142.3183  142.7440  163.1852 C.2     1  UNL1        0.0533
     15 C         141.8764  142.5246  164.6018 C.2     1  UNL1        0.0239
     16 S         141.2642  140.9104  166.5433 S.O2    1  UNL1        0.0631
     17 O         140.1343  140.0517  166.0579 O.2     1  UNL1       -0.1528
     18 O         142.3942  141.7691  167.0288 O.2     1  UNL1       -0.1528
     19 C         140.7729  140.6895  171.3136 C.3     1  UNL1        0.0323
     20 C         140.1976  140.3808  169.9632 C.3     1  UNL1        0.1211
     21 O         138.9973  139.7617  170.6161 O.3     1  UNL1       -0.3839
     22 C         139.6222  140.0720  168.6128 C.3     1  UNL1        0.1240
     23 N         140.8224  140.6910  167.9599 N.3     1  UNL1       -0.1507
     24 C         141.3978  140.9998  169.3103 C.3     1  UNL1        0.1240
     25 H         139.0893  139.8165  171.5801 H       1  UNL1        0.2104
     26 C         143.1136  139.4563  157.6668 C.3     1  UNL1        0.1204
     27 C         142.4030  138.1565  157.9023 C.3     1  UNL1        0.1459
     28 O         143.1732  136.9524  158.3572 O.3     1  UNL1       -0.3813
     29 H         142.5679  136.2016  158.4608 H       1  UNL1        0.2105
     30 C         140.9222  138.0607  157.6828 C.3     1  UNL1        0.1034
     31 N         139.9784  138.7460  158.6259 N.3     1  UNL1       -0.2704
     32 C         140.0690  138.4838  160.0999 C.3     1  UNL1        0.0759
     33 C         139.1251  139.1691  161.0431 C.3     1  UNL1        0.0609
     34 C         138.0906  140.1167  160.5121 C.3     1  UNL1        0.1687
     35 C         138.0001  140.3790  159.0379 C.3     1  UNL1        0.0609
     36 C         138.9439  139.6936  158.0948 C.3     1  UNL1        0.0759
     37 O         137.1468  140.8021  161.4551 O.3     1  UNL1       -0.4790
     38 C         137.6578  141.8525  162.3962 C.ar    1  UNL1        0.1393
     39 C         137.6908  141.5854  163.8719 C.ar    1  UNL1        0.0378
     40 C         138.2018  142.6358  164.8129 C.ar    1  UNL1        0.0154
     41 C         138.6799  143.9532  164.2783 C.ar    1  UNL1        0.0684
     42 CL        139.1909  145.0036  165.2193 Cl      1  UNL1       -0.0814
     43 C         138.6469  144.2202  162.8026 C.ar    1  UNL1        0.0712
     44 CL        139.1251  145.5377  162.2680 Cl      1  UNL1       -0.0813
     45 C         138.1359  143.1699  161.8616 C.ar    1  UNL1        0.0491
@<TRIPOS>BOND
     1    19    20    1
     2    20    21    1
     3    20    22    1
     4    22    23    1
     5    23    16    1
     6    16    17    2
     7    16    18    2
     8    16     5    1
     9     5     6    2
    10     6     7    1
    11     7     8    1
    12     8     9    2
    13     9     1    1
    14     1     2    2
    15     1     3   am
    16     3    26    1
    17    26    27    1
    18    27    28    1
    19    27    30    1
    20    30    31    1
    21    31    32    1
    22    32    33    1
    23    33    34    1
    24    34    37    1
    25    37    38    1
    26    38    39   ar
    27    39    40   ar
    28    40    41   ar
    29    41    42    1
    30    41    43   ar
    31    43    44    1
    32    43    45   ar
    33    34    35    1
    34    35    36    1
    35     9    10    1
    36    10    11    2
    37    11    12    1
    38    12    13    2
    39    12    14    1
    40    14    15    2
    41    23    24    1
    42    24    20    1
    43    15     5    1
    44    14     8    1
    45    36    31    1
    46    45    38   ar
    47    21    25    1
    48     3     4    1
    49    28    29    1
@<TRIPOS>MOLECULE
*****
 45 49 0 0 0
SMALL
GASTEIGER

@<TRIPOS>ATOM
      1 C         140.1045  143.1828  159.6877 C.2     1  UNL1        0.2469
      2 O         140.1436  144.6802  159.7679 O.2     1  UNL1       -0.2701
      3 N         140.7778  142.4749  158.5494 N.am    1  UNL1       -0.2985
      4 H         140.7521  141.4921  158.4968 H       1  UNL1        0.1498
      5 C         141.2127  141.9598  164.8380 C.2     1  UNL1        0.1184
      6 C         141.9251  142.7492  163.7800 C.2     1  UNL1       -0.0015
      7 C         141.3182  142.8937  162.4159 C.3     1  UNL1        0.0540
      8 C         139.9989  142.2489  162.1098 C.2     1  UNL1       -0.0076
      9 C         139.3921  142.3934  160.7456 C.2     1  UNL1        0.0665
     10 C         138.0728  141.7486  160.4395 C.2     1  UNL1        0.0931
     11 N         137.3604  140.9592  161.4975 N.am    1  UNL1       -0.1740
     12 C         137.9673  140.8146  162.8616 C.2     1  UNL1        0.2688
     13 O         137.2549  140.0253  163.9196 O.2     1  UNL1       -0.2680
     14 C         139.2865  141.4595  163.1678 C.2     1  UNL1        0.0533
     15 C         139.8934  141.3150  164.5318 C.2     1  UNL1        0.0239
     16 S         141.8195  141.8153  166.2021 S.O2    1  UNL1        0.0631
     17 O         140.4505  141.8450  166.8144 O.2     1  UNL1       -0.1528
     18 O         143.1885  141.7856  165.5899 O.2     1  UNL1       -0.1528
     19 C         143.1646  140.4692  170.6095 C.3     1  UNL1        0.0323
     20 C         143.2847  141.4663  169.4954 C.3     1  UNL1        0.1211
     21 O         144.2631  142.2591  170.3104 O.3     1  UNL1       -0.3839
     22 C         143.4048  142.4635  168.3813 C.3     1  UNL1        0.1240
     23 N         142.4264  141.6707  167.5662 N.3     1  UNL1       -0.1507
     24 C         142.3063  140.6735  168.6803 C.3     1  UNL1        0.1240
     25 H         144.4008  141.8221  171.1653 H       1  UNL1        0.2104
     26 C         141.4902  143.2643  157.4915 C.3     1  UNL1        0.1204
     27 C         142.8057  143.9154  157.7999 C.3     1  UNL1        0.1459
     28 O         142.8945  145.4082  157.9173 O.3     1  UNL1       -0.3813
     29 H         143.8086  145.6629  158.1184 H       1  UNL1        0.2105
     30 C         144.0327  143.0738  157.9910 C.3     1  UNL1        0.1034
     31 N         144.0505  142.0010  159.0392 N.3     1  UNL1       -0.2704
     32 C         143.7552  140.5794  158.6625 C.3     1  UNL1        0.0759
     33 C         143.7730  139.5065  159.7107 C.3     1  UNL1        0.0609
     34 C         144.0861  139.8553  161.1356 C.3     1  UNL1        0.1687
     35 C         144.3814  141.2770  161.5123 C.3     1  UNL1        0.0609
     36 C         144.3636  142.3497  160.4641 C.3     1  UNL1        0.0759
     37 O         144.1039  138.7825  162.1838 O.3     1  UNL1       -0.4790
     38 C         142.8586  138.4717  162.9601 C.ar    1  UNL1        0.1393
     39 C         142.8936  138.4571  164.4596 C.ar    1  UNL1        0.0378
     40 C         141.6484  138.1462  165.2359 C.ar    1  UNL1        0.0154
     41 C         140.3681  137.8500  164.5128 C.ar    1  UNL1        0.0684
     42 CL        139.1228  137.5392  165.2891 Cl      1  UNL1       -0.0814
     43 C         140.3331  137.8646  163.0132 C.ar    1  UNL1        0.0712
     44 CL        139.0527  137.5684  162.2900 Cl      1  UNL1       -0.0813
     45 C         141.5783  138.1755  162.2369 C.ar    1  UNL1        0.0491
@<TRIPOS>BOND
     1    19    20    1
     2    20    21    1
     3    20    22    1
     4    22    23    1
     5    23    16    1
     6    16    17    2
     7    16    18    2
     8    16     5    1
     9     5     6    2
    10     6     7    1
    11     7     8    1
    12     8     9    2
    13     9     1    1
    14     1     2    2
    15     1     3   am
    16     3    26    1
    17    26    27    1
    18    27    28    1
    19    27    30    1
    20    30    31    1
    21    31    32    1
    22    32    33    1
    23    33    34    1
    24    34    37    1
    25    37    38    1
    26    38    39   ar
    27    39    40   ar
    28    40    41   ar
    29    41    42    1
    30    41    43   ar
    31    43    44    1
    32    43    45   ar
    33    34    35    1
    34    35    36    1
    35     9    10    1
    36    10    11    2
    37    11    12    1
    38    12    13    2
    39    12    14    1
    40    14    15    2
    41    23    24    1
    42    24    20    1
    43    15     5    1
    44    14     8    1
    45    36    31    1
    46    45    38   ar
    47    21    25    1
    48     3     4    1
    49    28    29    1
@<TRIPOS>MOLECULE
*****
 45 49 0 0 0
SMALL
GASTEIGER

@<TRIPOS>ATOM
      1 C         143.5293  139.4448  160.2071 C.2     1  UNL1        0.2469
      2 O         144.3021  138.2680  160.7244 O.2     1  UNL1       -0.2701
      3 N         142.5594  139.2669  159.0767 N.am    1  UNL1       -0.2985
      4 H         142.0522  140.0394  158.7371 H       1  UNL1        0.1498
      5 C         142.8771  141.4354  165.1932 C.2     1  UNL1        0.1184
      6 C         142.6801  140.0807  164.5802 C.2     1  UNL1       -0.0015
      7 C         142.9632  139.8688  163.1225 C.3     1  UNL1        0.0540
      8 C         143.4432  141.0116  162.2778 C.2     1  UNL1       -0.0076
      9 C         143.7263  140.7996  160.8201 C.2     1  UNL1        0.0665
     10 C         144.2063  141.9424  159.9754 C.2     1  UNL1        0.0931
     11 N         144.4033  143.2972  160.5884 N.am    1  UNL1       -0.1740
     12 C         144.1203  143.5091  162.0461 C.2     1  UNL1        0.2688
     13 O         144.3173  144.8639  162.6591 O.2     1  UNL1       -0.2680
     14 C         143.6402  142.3663  162.8908 C.2     1  UNL1        0.0533
     15 C         143.3572  142.5782  164.3485 C.2     1  UNL1        0.0239
     16 S         142.5941  141.6474  166.6510 S.O2    1  UNL1        0.0631
     17 O         143.6844  142.6756  166.7132 O.2     1  UNL1       -0.1528
     18 O         141.5038  140.6192  166.5888 O.2     1  UNL1       -0.1528
     19 C         140.7365  141.9104  171.0698 C.3     1  UNL1        0.0323
     20 C         141.9107  142.1591  170.1702 C.3     1  UNL1        0.1211
     21 O         142.6847  142.7075  171.3322 O.3     1  UNL1       -0.3839
     22 C         143.0850  142.4077  169.2707 C.3     1  UNL1        0.1240
     23 N         142.3110  141.8593  168.1087 N.3     1  UNL1       -0.1507
     24 C         141.1367  141.6107  169.0082 C.3     1  UNL1        0.1240
     25 H         142.1356  142.6741  172.1311 H       1  UNL1        0.2104
     26 C         142.3624  137.9122  158.4637 C.3     1  UNL1        0.1204
     27 C         141.4045  137.7374  157.3228 C.3     1  UNL1        0.1459
     28 O         141.9176  137.3691  155.9622 O.3     1  UNL1       -0.3813
     29 H         141.1732  137.2963  155.3447 H       1  UNL1        0.2105
     30 C         139.9332  137.9308  157.5424 C.3     1  UNL1        0.1034
     31 N         139.4369  139.1442  158.2712 N.3     1  UNL1       -0.2704
     32 C         139.3249  140.4566  157.5536 C.3     1  UNL1        0.0759
     33 C         138.8285  141.6700  158.2824 C.3     1  UNL1        0.0609
     34 C         138.4441  141.5711  159.7290 C.3     1  UNL1        0.1687
     35 C         138.5561  140.2586  160.4466 C.3     1  UNL1        0.0609
     36 C         139.0525  139.0452  159.7178 C.3     1  UNL1        0.0759
     37 O         137.9478  142.7844  160.4578 O.3     1  UNL1       -0.4790
     38 C         138.3645  143.0291  161.8779 C.ar    1  UNL1        0.1393
     39 C         137.6128  142.3807  163.0024 C.ar    1  UNL1        0.0378
     40 C         138.0295  142.6253  164.4224 C.ar    1  UNL1        0.0154
     41 C         139.1979  143.5183  164.7179 C.ar    1  UNL1        0.0684
     42 CL        139.6147  143.7629  166.1380 Cl      1  UNL1       -0.0814
     43 C         139.9496  144.1667  163.5934 C.ar    1  UNL1        0.0712
     44 CL        141.1180  145.0598  163.8890 Cl      1  UNL1       -0.0813
     45 C         139.5329  143.9221  162.1734 C.ar    1  UNL1        0.0491
@<TRIPOS>BOND
     1    19    20    1
     2    20    21    1
     3    20    22    1
     4    22    23    1
     5    23    16    1
     6    16    17    2
     7    16    18    2
     8    16     5    1
     9     5     6    2
    10     6     7    1
    11     7     8    1
    12     8     9    2
    13     9     1    1
    14     1     2    2
    15     1     3   am
    16     3    26    1
    17    26    27    1
    18    27    28    1
    19    27    30    1
    20    30    31    1
    21    31    32    1
    22    32    33    1
    23    33    34    1
    24    34    37    1
    25    37    38    1
    26    38    39   ar
    27    39    40   ar
    28    40    41   ar
    29    41    42    1
    30    41    43   ar
    31    43    44    1
    32    43    45   ar
    33    34    35    1
    34    35    36    1
    35     9    10    1
    36    10    11    2
    37    11    12    1
    38    12    13    2
    39    12    14    1
    40    14    15    2
    41    23    24    1
    42    24    20    1
    43    15     5    1
    44    14     8    1
    45    36    31    1
    46    45    38   ar
    47    21    25    1
    48     3     4    1
    49    28    29    1
@<TRIPOS>MOLECULE
*****
 45 49 0 0 0
SMALL
GASTEIGER

@<TRIPOS>ATOM
      1 C         138.5719  140.2752  165.7743 C.2     1  UNL1        0.2469
      2 O         137.7218  139.0708  166.0514 O.2     1  UNL1       -0.2701
      3 N         139.5501  140.7560  166.8049 N.am    1  UNL1       -0.2985
      4 H         140.1080  141.5465  166.6230 H       1  UNL1        0.1498
      5 C         140.3443  139.2986  160.7589 C.2     1  UNL1        0.1184
      6 C         140.4724  138.5750  162.0666 C.2     1  UNL1       -0.0015
      7 C         139.8389  139.1417  163.3024 C.3     1  UNL1        0.0540
      8 C         139.0773  140.4320  163.2307 C.2     1  UNL1       -0.0076
      9 C         138.4438  140.9988  164.4666 C.2     1  UNL1        0.0665
     10 C         137.6823  142.2891  164.3949 C.2     1  UNL1        0.0931
     11 N         137.5543  143.0127  163.0871 N.am    1  UNL1       -0.1740
     12 C         138.1877  142.4459  161.8512 C.2     1  UNL1        0.2688
     13 O         138.0597  143.1695  160.5436 O.2     1  UNL1       -0.2680
     14 C         138.9493  141.1556  161.9230 C.2     1  UNL1        0.0533
     15 C         139.5828  140.5889  160.6871 C.2     1  UNL1        0.0239
     16 S         140.9778  138.7318  159.5229 S.O2    1  UNL1        0.0631
     17 O         139.6183  138.4559  158.9525 O.2     1  UNL1       -0.1528
     18 O         142.3374  139.0077  160.0934 O.2     1  UNL1       -0.1528
     19 C         141.9949  136.7355  155.2772 C.3     1  UNL1        0.0323
     20 C         142.5073  137.3637  156.5392 C.3     1  UNL1        0.1211
     21 O         143.9159  137.1904  156.0534 O.3     1  UNL1       -0.3839
     22 C         143.0199  137.9918  157.8012 C.3     1  UNL1        0.1240
     23 N         141.6114  138.1651  158.2871 N.3     1  UNL1       -0.1507
     24 C         141.0988  137.5370  157.0250 C.3     1  UNL1        0.1240
     25 H         143.9071  136.7701  155.1793 H       1  UNL1        0.2104
     26 C         139.6781  140.0324  168.1125 C.3     1  UNL1        0.1204
     27 C         140.9836  140.0436  168.8511 C.3     1  UNL1        0.1459
     28 O         141.0291  140.4741  170.2873 O.3     1  UNL1       -0.3813
     29 H         141.9420  140.4232  170.6113 H       1  UNL1        0.2105
     30 C         142.2436  139.6242  168.1535 C.3     1  UNL1        0.1034
     31 N         142.7534  140.4157  166.9858 N.3     1  UNL1       -0.2704
     32 C         143.0311  141.8819  167.1375 C.3     1  UNL1        0.0759
     33 C         143.5410  142.6735  165.9698 C.3     1  UNL1        0.0609
     34 C         143.7731  141.9988  164.6504 C.3     1  UNL1        0.1687
     35 C         143.4953  140.5325  164.4987 C.3     1  UNL1        0.0609
     36 C         142.9855  139.7410  165.6664 C.3     1  UNL1        0.0759
     37 O         144.2829  142.7902  163.4827 O.3     1  UNL1       -0.4790
     38 C         143.3202  143.3438  162.4742 C.ar    1  UNL1        0.1393
     39 C         143.4464  142.9626  161.0289 C.ar    1  UNL1        0.0378
     40 C         142.4838  143.5161  160.0205 C.ar    1  UNL1        0.0154
     41 C         141.3952  144.4509  160.4573 C.ar    1  UNL1        0.0684
     42 CL        140.4325  145.0045  159.4488 Cl      1  UNL1       -0.0814
     43 C         141.2690  144.8322  161.9025 C.ar    1  UNL1        0.0712
     44 CL        140.1802  145.7671  162.3393 Cl      1  UNL1       -0.0813
     45 C         142.2316  144.2787  162.9110 C.ar    1  UNL1        0.0491
@<TRIPOS>BOND
     1    19    20    1
     2    20    21    1
     3    20    22    1
     4    22    23    1
     5    23    16    1
     6    16    17    2
     7    16    18    2
     8    16     5    1
     9     5     6    2
    10     6     7    1
    11     7     8    1
    12     8     9    2
    13     9     1    1
    14     1     2    2
    15     1     3   am
    16     3    26    1
    17    26    27    1
    18    27    28    1
    19    27    30    1
    20    30    31    1
    21    31    32    1
    22    32    33    1
    23    33    34    1
    24    34    37    1
    25    37    38    1
    26    38    39   ar
    27    39    40   ar
    28    40    41   ar
    29    41    42    1
    30    41    43   ar
    31    43    44    1
    32    43    45   ar
    33    34    35    1
    34    35    36    1
    35     9    10    1
    36    10    11    2
    37    11    12    1
    38    12    13    2
    39    12    14    1
    40    14    15    2
    41    23    24    1
    42    24    20    1
    43    15     5    1
    44    14     8    1
    45    36    31    1
    46    45    38   ar
    47    21    25    1
    48     3     4    1
    49    28    29    1
