@<TRIPOS>MOLECULE
*****
 25 27 0 0 0
SMALL
GASTEIGER

@<TRIPOS>ATOM
      1 C         139.5571  140.5030  166.1722 C.ar    1  UNL1       -0.0078
      2 C         138.6904  141.2478  165.2007 C.ar    1  UNL1        0.0002
      3 C         138.1621  140.5526  163.9810 C.ar    1  UNL1        0.0372
      4 C         138.5006  139.1125  163.7330 C.ar    1  UNL1        0.1453
      5 C         139.3673  138.3676  164.7045 C.ar    1  UNL1        0.0372
      6 C         139.8955  139.0628  165.9242 C.ar    1  UNL1        0.0002
      7 C         140.8467  141.6279  169.6560 C.3     1  UNL1        0.1315
      8 C         140.9499  142.9083  168.8815 C.3     1  UNL1        0.0268
      9 C         140.4794  142.6427  167.4822 C.3     1  UNL1        0.0221
     10 C         140.0854  141.1982  167.3919 C.3     1  UNL1        0.0772
     11 N         140.3124  140.5710  168.7354 N.3     1  UNL1       -0.2890
     12 H         140.9871  139.8105  168.6529 H       1  UNL1        0.1239
     13 N         142.3332  140.5122  171.4714 N.am    1  UNL1       -0.3277
     14 C         141.2134  141.4378  171.0981 C.2     1  UNL1        0.2336
     15 O         140.4604  142.1731  172.1667 O.2     1  UNL1       -0.2739
     16 H         142.5739  140.3874  172.4178 H       1  UNL1        0.1450
     17 H         142.8275  140.0296  170.7700 H       1  UNL1        0.1450
     18 O         137.9723  138.4172  162.5133 O.3     1  UNL1       -0.4534
     19 C         138.3970  138.8712  161.1482 C.ar    1  UNL1        0.1475
     20 C         137.5840  139.8940  160.4113 C.ar    1  UNL1        0.0376
     21 C         138.0088  140.3479  159.0461 C.ar    1  UNL1        0.0054
     22 C         139.2464  139.7791  158.4179 C.ar    1  UNL1        0.0298
     23 C         140.0593  138.7563  159.1548 C.ar    1  UNL1        0.1432
     24 F         141.2969  138.1874  158.5266 F       1  UNL1       -0.2041
     25 C         139.6346  138.3023  160.5199 C.ar    1  UNL1        0.0671
@<TRIPOS>BOND
     1    13    14   am
     2    14    15    2
     3     7    14    1
     4     7     8    1
     5     8     9    1
     6     9    10    1
     7    10     1    1
     8     1     2   ar
     9     2     3   ar
    10     3     4   ar
    11     4    18    1
    12    18    19    1
    13    19    20   ar
    14    20    21   ar
    15    21    22   ar
    16    22    23   ar
    17    23    24    1
    18    23    25   ar
    19     4     5   ar
    20     5     6   ar
    21    10    11    1
    22    11     7    1
    23     6     1   ar
    24    25    19   ar
    25    13    16    1
    26    13    17    1
    27    11    12    1
@<TRIPOS>MOLECULE
*****
 25 27 0 0 0
SMALL
GASTEIGER

@<TRIPOS>ATOM
      1 C         140.0772  139.7409  166.6583 C.ar    1  UNL1       -0.0078
      2 C         141.3732  139.5155  165.9375 C.ar    1  UNL1        0.0002
      3 C         141.4058  138.6681  164.7003 C.ar    1  UNL1        0.0372
      4 C         140.1423  138.0459  164.1840 C.ar    1  UNL1        0.1453
      5 C         138.8463  138.2712  164.9048 C.ar    1  UNL1        0.0372
      6 C         138.8138  139.1187  166.1420 C.ar    1  UNL1        0.0002
      7 C         140.4553  142.3862  169.4734 C.3     1  UNL1        0.1315
      8 C         139.5336  141.3986  170.1256 C.3     1  UNL1        0.0268
      9 C         139.2799  140.2875  169.1505 C.3     1  UNL1        0.0221
     10 C         140.0447  140.5884  167.8956 C.3     1  UNL1        0.0772
     11 N         140.7711  141.8854  168.0952 N.3     1  UNL1       -0.2890
     12 H         140.4623  142.5656  167.4006 H       1  UNL1        0.1239
     13 N         142.4000  143.7416  170.5370 N.am    1  UNL1       -0.3277
     14 C         140.9706  143.6524  170.0910 C.2     1  UNL1        0.2336
     15 O         140.0566  144.8292  170.2627 O.2     1  UNL1       -0.2739
     16 H         142.7382  144.5726  170.9423 H       1  UNL1        0.1450
     17 H         142.9999  142.9692  170.4243 H       1  UNL1        0.1450
     18 O         140.1749  137.1984  162.9467 O.3     1  UNL1       -0.4534
     19 C         140.3651  137.8389  161.6037 C.ar    1  UNL1        0.1475
     20 C         139.1767  138.3335  160.8337 C.ar    1  UNL1        0.0376
     21 C         139.3669  138.9740  159.4906 C.ar    1  UNL1        0.0054
     22 C         140.7454  139.1198  158.9177 C.ar    1  UNL1        0.0298
     23 C         141.9338  138.6251  159.6878 C.ar    1  UNL1        0.1432
     24 F         143.3124  138.7709  159.1148 F       1  UNL1       -0.2041
     25 C         141.7437  137.9847  161.0307 C.ar    1  UNL1        0.0671
@<TRIPOS>BOND
     1    13    14   am
     2    14    15    2
     3     7    14    1
     4     7     8    1
     5     8     9    1
     6     9    10    1
     7    10     1    1
     8     1     2   ar
     9     2     3   ar
    10     3     4   ar
    11     4    18    1
    12    18    19    1
    13    19    20   ar
    14    20    21   ar
    15    21    22   ar
    16    22    23   ar
    17    23    24    1
    18    23    25   ar
    19     4     5   ar
    20     5     6   ar
    21    10    11    1
    22    11     7    1
    23     6     1   ar
    24    25    19   ar
    25    13    16    1
    26    13    17    1
    27    11    12    1
@<TRIPOS>MOLECULE
*****
 25 27 0 0 0
SMALL
GASTEIGER

@<TRIPOS>ATOM
      1 C         140.8860  139.7242  167.1303 C.ar    1  UNL1       -0.0078
      2 C         139.3881  139.8016  167.1458 C.ar    1  UNL1        0.0002
      3 C         138.5986  139.2902  165.9774 C.ar    1  UNL1        0.0372
      4 C         139.3070  138.7015  164.7935 C.ar    1  UNL1        0.1453
      5 C         140.8049  138.6241  164.7781 C.ar    1  UNL1        0.0372
      6 C         141.5944  139.1354  165.9465 C.ar    1  UNL1        0.0002
      7 C         142.9272  141.6992  169.7758 C.3     1  UNL1        0.1315
      8 C         142.8537  140.3455  170.4179 C.3     1  UNL1        0.0268
      9 C         142.0801  139.4409  169.5050 C.3     1  UNL1        0.0221
     10 C         141.6755  140.2355  168.2988 C.3     1  UNL1        0.0772
     11 N         142.1990  141.6312  168.4662 N.3     1  UNL1       -0.2890
     12 H         141.4237  142.2940  168.4664 H       1  UNL1        0.1239
     13 N         145.1043  143.0182  170.2958 N.am    1  UNL1       -0.3277
     14 C         143.6091  142.9085  170.3437 C.2     1  UNL1        0.2336
     15 O         142.7958  144.0083  170.9595 O.2     1  UNL1       -0.2739
     16 H         145.5519  143.8119  170.6685 H       1  UNL1        0.1450
     17 H         145.6381  142.2964  169.8916 H       1  UNL1        0.1450
     18 O         138.5175  138.1901  163.6251 O.3     1  UNL1       -0.4534
     19 C         138.5201  138.9462  162.3296 C.ar    1  UNL1        0.1475
     20 C         138.9138  138.2544  161.0582 C.ar    1  UNL1        0.0376
     21 C         138.9164  139.0105  159.7627 C.ar    1  UNL1        0.0054
     22 C         138.5252  140.4584  159.7386 C.ar    1  UNL1        0.0298
     23 C         138.1315  141.1502  161.0100 C.ar    1  UNL1        0.1432
     24 F         137.7403  142.5981  160.9859 F       1  UNL1       -0.2041
     25 C         138.1289  140.3941  162.3055 C.ar    1  UNL1        0.0671
@<TRIPOS>BOND
     1    13    14   am
     2    14    15    2
     3     7    14    1
     4     7     8    1
     5     8     9    1
     6     9    10    1
     7    10     1    1
     8     1     2   ar
     9     2     3   ar
    10     3     4   ar
    11     4    18    1
    12    18    19    1
    13    19    20   ar
    14    20    21   ar
    15    21    22   ar
    16    22    23   ar
    17    23    24    1
    18    23    25   ar
    19     4     5   ar
    20     5     6   ar
    21    10    11    1
    22    11     7    1
    23     6     1   ar
    24    25    19   ar
    25    13    16    1
    26    13    17    1
    27    11    12    1
@<TRIPOS>MOLECULE
*****
 25 27 0 0 0
SMALL
GASTEIGER

@<TRIPOS>ATOM
      1 C         140.5624  142.9614  166.0640 C.ar    1  UNL1       -0.0078
      2 C         141.7373  142.8641  165.1366 C.ar    1  UNL1        0.0002
      3 C         141.7734  143.6871  163.8831 C.ar    1  UNL1        0.0372
      4 C         140.6347  144.6075  163.5571 C.ar    1  UNL1        0.1453
      5 C         139.4599  144.7049  164.4846 C.ar    1  UNL1        0.0372
      6 C         139.4238  143.8819  165.7380 C.ar    1  UNL1        0.0002
      7 C         140.8324  141.4162  169.6144 C.3     1  UNL1        0.1315
      8 C         140.1087  140.3275  168.8787 C.3     1  UNL1        0.0268
      9 C         139.9195  140.7739  167.4592 C.3     1  UNL1        0.0221
     10 C         140.5262  142.1384  167.3176 C.3     1  UNL1        0.0772
     11 N         141.0904  142.5353  168.6496 N.3     1  UNL1       -0.2890
     12 H         140.6358  143.3873  168.9781 H       1  UNL1        0.1239
     13 N         142.3998  140.5641  171.5031 N.am    1  UNL1       -0.3277
     14 C         141.2284  141.3902  171.0609 C.2     1  UNL1        0.2336
     15 O         140.4531  142.1902  172.0653 O.2     1  UNL1       -0.2739
     16 H         142.6597  140.5471  172.4525 H       1  UNL1        0.1450
     17 H         142.9087  140.0390  170.8439 H       1  UNL1        0.1450
     18 O         140.6709  145.4306  162.3035 O.3     1  UNL1       -0.4534
     19 C         140.2976  144.8119  160.9891 C.ar    1  UNL1        0.1475
     20 C         139.5351  143.5206  160.9576 C.ar    1  UNL1        0.0376
     21 C         139.1618  142.9019  159.6430 C.ar    1  UNL1        0.0054
     22 C         139.5510  143.5746  158.3601 C.ar    1  UNL1        0.0298
     23 C         140.3135  144.8659  158.3916 C.ar    1  UNL1        0.1432
     24 F         140.7027  145.5386  157.1086 F       1  UNL1       -0.2041
     25 C         140.6868  145.4846  159.7060 C.ar    1  UNL1        0.0671
@<TRIPOS>BOND
     1    13    14   am
     2    14    15    2
     3     7    14    1
     4     7     8    1
     5     8     9    1
     6     9    10    1
     7    10     1    1
     8     1     2   ar
     9     2     3   ar
    10     3     4   ar
    11     4    18    1
    12    18    19    1
    13    19    20   ar
    14    20    21   ar
    15    21    22   ar
    16    22    23   ar
    17    23    24    1
    18    23    25   ar
    19     4     5   ar
    20     5     6   ar
    21    10    11    1
    22    11     7    1
    23     6     1   ar
    24    25    19   ar
    25    13    16    1
    26    13    17    1
    27    11    12    1
@<TRIPOS>MOLECULE
*****
 25 27 0 0 0
SMALL
GASTEIGER

@<TRIPOS>ATOM
      1 C         140.0305  139.7478  166.6426 C.ar    1  UNL1       -0.0078
      2 C         138.8055  139.0086  166.1921 C.ar    1  UNL1        0.0002
      3 C         138.8477  138.1772  164.9444 C.ar    1  UNL1        0.0372
      4 C         140.1149  138.0850  164.1470 C.ar    1  UNL1        0.1453
      5 C         141.3399  138.8242  164.5975 C.ar    1  UNL1        0.0372
      6 C         141.2977  139.6556  165.8452 C.ar    1  UNL1        0.0002
      7 C         140.3777  142.3622  169.4904 C.3     1  UNL1        0.1315
      8 C         139.4691  141.3550  170.1308 C.3     1  UNL1        0.0268
      9 C         139.2285  140.2531  169.1420 C.3     1  UNL1        0.0221
     10 C         139.9883  140.5792  167.8904 C.3     1  UNL1        0.0772
     11 N         140.6985  141.8828  168.1057 N.3     1  UNL1       -0.2890
     12 H         140.3806  142.5676  167.4199 H       1  UNL1        0.1239
     13 N         139.9683  144.8133  170.2484 N.am    1  UNL1       -0.3277
     14 C         140.8776  143.6269  170.1234 C.2     1  UNL1        0.2336
     15 O         142.2867  143.7051  170.6316 O.2     1  UNL1       -0.2739
     16 H         140.2964  145.6434  170.6639 H       1  UNL1        0.1450
     17 H         139.0435  144.7620  169.9149 H       1  UNL1        0.1450
     18 O         140.1570  137.2536  162.8992 O.3     1  UNL1       -0.4534
     19 C         140.3796  137.9090  161.5685 C.ar    1  UNL1        0.1475
     20 C         141.7606  137.9749  160.9865 C.ar    1  UNL1        0.0376
     21 C         141.9831  138.6303  159.6557 C.ar    1  UNL1        0.0054
     22 C         140.8248  139.2197  158.9069 C.ar    1  UNL1        0.0298
     23 C         139.4439  139.1538  159.4889 C.ar    1  UNL1        0.1432
     24 F         138.2855  139.7433  158.7401 F       1  UNL1       -0.2041
     25 C         139.2213  138.4985  160.8196 C.ar    1  UNL1        0.0671
@<TRIPOS>BOND
     1    13    14   am
     2    14    15    2
     3     7    14    1
     4     7     8    1
     5     8     9    1
     6     9    10    1
     7    10     1    1
     8     1     2   ar
     9     2     3   ar
    10     3     4   ar
    11     4    18    1
    12    18    19    1
    13    19    20   ar
    14    20    21   ar
    15    21    22   ar
    16    22    23   ar
    17    23    24    1
    18    23    25   ar
    19     4     5   ar
    20     5     6   ar
    21    10    11    1
    22    11     7    1
    23     6     1   ar
    24    25    19   ar
    25    13    16    1
    26    13    17    1
    27    11    12    1
@<TRIPOS>MOLECULE
*****
 25 27 0 0 0
SMALL
GASTEIGER

@<TRIPOS>ATOM
      1 C         140.4855  143.1381  165.9703 C.ar    1  UNL1       -0.0078
      2 C         139.2905  143.9806  165.6357 C.ar    1  UNL1        0.0002
      3 C         139.2638  144.7719  164.3616 C.ar    1  UNL1        0.0372
      4 C         140.4321  144.7205  163.4222 C.ar    1  UNL1        0.1453
      5 C         141.6271  143.8779  163.7568 C.ar    1  UNL1        0.0372
      6 C         141.6538  143.0867  165.0309 C.ar    1  UNL1        0.0002
      7 C         140.8876  141.7026  169.5541 C.3     1  UNL1        0.1315
      8 C         140.2192  140.5556  168.8557 C.3     1  UNL1        0.0268
      9 C         139.9872  140.9537  167.4283 C.3     1  UNL1        0.0221
     10 C         140.5122  142.3468  167.2444 C.3     1  UNL1        0.0772
     11 N         141.0687  142.8096  168.5582 N.3     1  UNL1       -0.2890
     12 H         140.5696  143.6421  168.8715 H       1  UNL1        0.1239
     13 N         142.4965  142.5420  171.4133 N.am    1  UNL1       -0.3277
     14 C         141.3021  141.7366  170.9953 C.2     1  UNL1        0.2336
     15 O         140.5223  140.9652  172.0184 O.2     1  UNL1       -0.2739
     16 H         142.7686  142.5643  172.3592 H       1  UNL1        0.1450
     17 H         143.0084  143.0483  170.7418 H       1  UNL1        0.1450
     18 O         140.4053  145.5118  162.1481 O.3     1  UNL1       -0.4534
     19 C         140.1180  144.8262  160.8454 C.ar    1  UNL1        0.1475
     20 C         140.5692  145.4460  159.5561 C.ar    1  UNL1        0.0376
     21 C         140.2819  144.7603  158.2533 C.ar    1  UNL1        0.0054
     22 C         139.5433  143.4548  158.2397 C.ar    1  UNL1        0.0298
     23 C         139.0920  142.8350  159.5290 C.ar    1  UNL1        0.1432
     24 F         138.3534  141.5296  159.5155 F       1  UNL1       -0.2041
     25 C         139.3793  143.5207  160.8318 C.ar    1  UNL1        0.0671
@<TRIPOS>BOND
     1    13    14   am
     2    14    15    2
     3     7    14    1
     4     7     8    1
     5     8     9    1
     6     9    10    1
     7    10     1    1
     8     1     2   ar
     9     2     3   ar
    10     3     4   ar
    11     4    18    1
    12    18    19    1
    13    19    20   ar
    14    20    21   ar
    15    21    22   ar
    16    22    23   ar
    17    23    24    1
    18    23    25   ar
    19     4     5   ar
    20     5     6   ar
    21    10    11    1
    22    11     7    1
    23     6     1   ar
    24    25    19   ar
    25    13    16    1
    26    13    17    1
    27    11    12    1
@<TRIPOS>MOLECULE
*****
 25 27 0 0 0
SMALL
GASTEIGER

@<TRIPOS>ATOM
      1 C         141.5360  139.8779  166.4179 C.ar    1  UNL1       -0.0078
      2 C         140.8303  139.8250  165.0954 C.ar    1  UNL1        0.0002
      3 C         141.5600  139.3486  163.8745 C.ar    1  UNL1        0.0372
      4 C         142.9954  138.9252  163.9762 C.ar    1  UNL1        0.1453
      5 C         143.7011  138.9781  165.2988 C.ar    1  UNL1        0.0372
      6 C         142.9714  139.4545  166.5196 C.ar    1  UNL1        0.0002
      7 C         140.1873  141.6360  169.6048 C.3     1  UNL1        0.1315
      8 C         139.1794  140.5387  169.4306 C.3     1  UNL1        0.0268
      9 C         139.5620  139.7467  168.2156 C.3     1  UNL1        0.0221
     10 C         140.8063  140.3543  167.6389 C.3     1  UNL1        0.0772
     11 N         141.1927  141.5220  168.4975 N.3     1  UNL1       -0.2890
     12 H         141.1925  142.3764  167.9404 H       1  UNL1        0.1239
     13 N         140.0226  144.1178  170.3555 N.am    1  UNL1       -0.3277
     14 C         140.1894  142.6663  170.6950 C.2     1  UNL1        0.2336
     15 O         140.3583  142.2451  172.1247 O.2     1  UNL1       -0.2739
     16 H         140.0240  144.7940  171.0710 H       1  UNL1        0.1450
     17 H         139.9118  144.3942  169.4171 H       1  UNL1        0.1450
     18 O         143.7251  138.4488  162.7553 O.3     1  UNL1       -0.4534
     19 C         143.7743  139.3092  161.5276 C.ar    1  UNL1        0.1475
     20 C         144.1950  140.7450  161.6343 C.ar    1  UNL1        0.0376
     21 C         144.2442  141.6054  160.4065 C.ar    1  UNL1        0.0054
     22 C         143.8728  141.0299  159.0721 C.ar    1  UNL1        0.0298
     23 C         143.4521  139.5940  158.9653 C.ar    1  UNL1        0.1432
     24 F         143.0807  139.0186  157.6308 F       1  UNL1       -0.2041
     25 C         143.4029  138.7337  160.1930 C.ar    1  UNL1        0.0671
@<TRIPOS>BOND
     1    13    14   am
     2    14    15    2
     3     7    14    1
     4     7     8    1
     5     8     9    1
     6     9    10    1
     7    10     1    1
     8     1     2   ar
     9     2     3   ar
    10     3     4   ar
    11     4    18    1
    12    18    19    1
    13    19    20   ar
    14    20    21   ar
    15    21    22   ar
    16    22    23   ar
    17    23    24    1
    18    23    25   ar
    19     4     5   ar
    20     5     6   ar
    21    10    11    1
    22    11     7    1
    23     6     1   ar
    24    25    19   ar
    25    13    16    1
    26    13    17    1
    27    11    12    1
@<TRIPOS>MOLECULE
*****
 25 27 0 0 0
SMALL
GASTEIGER

@<TRIPOS>ATOM
      1 C         142.3029  142.2402  166.2463 C.ar    1  UNL1       -0.0078
      2 C         141.1501  142.5650  165.3433 C.ar    1  UNL1        0.0002
      3 C         141.3754  143.3755  164.1015 C.ar    1  UNL1        0.0372
      4 C         142.7535  143.8613  163.7626 C.ar    1  UNL1        0.1453
      5 C         143.9064  143.5365  164.6656 C.ar    1  UNL1        0.0372
      6 C         143.6811  142.7259  165.9074 C.ar    1  UNL1        0.0002
      7 C         141.2924  140.7249  169.6739 C.3     1  UNL1        0.1315
      8 C         142.1698  139.6393  169.1244 C.3     1  UNL1        0.0268
      9 C         142.6551  140.0749  167.7736 C.3     1  UNL1        0.0221
     10 C         142.0777  141.4295  167.4882 C.3     1  UNL1        0.0772
     11 N         141.2355  141.8313  168.6626 N.3     1  UNL1       -0.2890
     12 H         140.2714  141.9774  168.3633 H       1  UNL1        0.1239
     13 N         139.8717  139.4725  171.4525 N.am    1  UNL1       -0.3277
     14 C         140.5944  140.7072  171.0015 C.2     1  UNL1        0.2336
     15 O         140.6192  141.9241  171.8782 O.2     1  UNL1       -0.2739
     16 H         139.4137  139.4609  172.3238 H       1  UNL1        0.1450
     17 H         139.8555  138.6739  170.8771 H       1  UNL1        0.1450
     18 O         142.9788  144.6719  162.5207 O.3     1  UNL1       -0.4534
     19 C         142.5019  144.1598  161.1940 C.ar    1  UNL1        0.1475
     20 C         143.1375  142.9444  160.5867 C.ar    1  UNL1        0.0376
     21 C         142.6605  142.4323  159.2599 C.ar    1  UNL1        0.0054
     22 C         141.5479  143.1355  158.5406 C.ar    1  UNL1        0.0298
     23 C         140.9122  144.3508  159.1479 C.ar    1  UNL1        0.1432
     24 F         139.7996  145.0540  158.4285 F       1  UNL1       -0.2041
     25 C         141.3892  144.8630  160.4746 C.ar    1  UNL1        0.0671
@<TRIPOS>BOND
     1    13    14   am
     2    14    15    2
     3     7    14    1
     4     7     8    1
     5     8     9    1
     6     9    10    1
     7    10     1    1
     8     1     2   ar
     9     2     3   ar
    10     3     4   ar
    11     4    18    1
    12    18    19    1
    13    19    20   ar
    14    20    21   ar
    15    21    22   ar
    16    22    23   ar
    17    23    24    1
    18    23    25   ar
    19     4     5   ar
    20     5     6   ar
    21    10    11    1
    22    11     7    1
    23     6     1   ar
    24    25    19   ar
    25    13    16    1
    26    13    17    1
    27    11    12    1
@<TRIPOS>MOLECULE
*****
 25 27 0 0 0
SMALL
GASTEIGER

@<TRIPOS>ATOM
      1 C         142.9725  142.6419  166.1166 C.ar    1  UNL1       -0.0078
      2 C         141.6772  142.9011  165.4060 C.ar    1  UNL1        0.0002
      3 C         141.6801  143.5558  164.0565 C.ar    1  UNL1        0.0372
      4 C         142.9783  143.9513  163.4175 C.ar    1  UNL1        0.1453
      5 C         144.2736  143.6921  164.1281 C.ar    1  UNL1        0.0372
      6 C         144.2707  143.0374  165.4776 C.ar    1  UNL1        0.0002
      7 C         142.5798  140.4013  169.2616 C.3     1  UNL1        0.1315
      8 C         143.3510  141.5582  169.8245 C.3     1  UNL1        0.0268
      9 C         143.5920  142.5384  168.7149 C.3     1  UNL1        0.0221
     10 C         142.9697  141.9872  167.4662 C.3     1  UNL1        0.0772
     11 N         142.3441  140.6664  167.8042 N.3     1  UNL1       -0.2890
     12 H         142.7708  139.9280  167.2446 H       1  UNL1        0.1239
     13 N         140.7694  139.1768  170.6663 N.am    1  UNL1       -0.3277
     14 C         142.1242  139.1916  170.0227 C.2     1  UNL1        0.2336
     15 O         143.0233  137.9968  170.1400 O.2     1  UNL1       -0.2739
     16 H         140.4704  138.3829  171.1658 H       1  UNL1        0.1450
     17 H         140.1792  139.9610  170.5894 H       1  UNL1        0.1450
     18 O         142.9811  144.6060  162.0679 O.3     1  UNL1       -0.4534
     19 C         142.0865  144.0879  160.9811 C.ar    1  UNL1        0.1475
     20 C         140.9345  144.9186  160.4983 C.ar    1  UNL1        0.0376
     21 C         140.0399  144.4004  159.4114 C.ar    1  UNL1        0.0054
     22 C         140.2971  143.0518  158.8075 C.ar    1  UNL1        0.0298
     23 C         141.4490  142.2211  159.2903 C.ar    1  UNL1        0.1432
     24 F         141.7063  140.8724  158.6864 F       1  UNL1       -0.2041
     25 C         142.3437  142.7392  160.3771 C.ar    1  UNL1        0.0671
@<TRIPOS>BOND
     1    13    14   am
     2    14    15    2
     3     7    14    1
     4     7     8    1
     5     8     9    1
     6     9    10    1
     7    10     1    1
     8     1     2   ar
     9     2     3   ar
    10     3     4   ar
    11     4    18    1
    12    18    19    1
    13    19    20   ar
    14    20    21   ar
    15    21    22   ar
    16    22    23   ar
    17    23    24    1
    18    23    25   ar
    19     4     5   ar
    20     5     6   ar
    21    10    11    1
    22    11     7    1
    23     6     1   ar
    24    25    19   ar
    25    13    16    1
    26    13    17    1
    27    11    12    1
