@<TRIPOS>MOLECULE
*****
 25 26 0 0 0
SMALL
GASTEIGER

@<TRIPOS>ATOM
      1 C         141.1883  141.0535  166.1987 C.3     1  UNL1        0.0489
      2 C         140.2836  144.3979  170.0713 C.3     1  UNL1        0.0310
      3 C         140.9902  143.1862  169.5398 C.ar    1  UNL1       -0.0220
      4 C         141.9511  142.4350  170.4129 C.ar    1  UNL1       -0.0012
      5 C         142.6577  141.2233  169.8814 C.ar    1  UNL1        0.0360
      6 C         142.4035  140.7628  168.4767 C.ar    1  UNL1        0.1299
      7 O         143.1101  139.5512  167.9451 O.3     1  UNL1       -0.5058
      8 C         141.4426  141.5140  167.6035 C.ar    1  UNL1        0.0150
      9 C         140.7360  142.7257  168.1350 C.ar    1  UNL1       -0.0052
     10 H         143.7103  139.0819  168.4906 H       1  UNL1        0.2922
     11 C         140.3094  139.8644  165.9467 C.ar    1  UNL1       -0.0183
     12 C         138.9741  139.7622  166.6222 C.ar    1  UNL1       -0.0040
     13 C         138.0952  138.5730  166.3703 C.ar    1  UNL1       -0.0003
     14 C         138.5517  137.4861  165.4429 C.ar    1  UNL1       -0.0000
     15 C         139.8871  137.5883  164.7673 C.ar    1  UNL1       -0.0003
     16 C         140.7660  138.7774  165.0193 C.ar    1  UNL1       -0.0040
     17 C         141.8129  141.7822  165.0459 C.3     1  UNL1        0.0262
     18 C         140.9579  142.2653  163.9121 C.3     1  UNL1        0.0727
     19 N         140.2643  143.5918  164.0082 N.3     1  UNL1       -0.2752
     20 C         138.9481  143.7001  164.7193 C.3     1  UNL1        0.0575
     21 C         137.9024  142.6419  164.5271 C.3     1  UNL1        0.0173
     22 C         138.6774  144.8667  165.6226 C.3     1  UNL1        0.0173
     23 C         140.8870  144.8101  163.3931 C.3     1  UNL1        0.0575
     24 C         140.1560  145.5678  162.3248 C.3     1  UNL1        0.0173
     25 C         142.2406  145.2706  163.8465 C.3     1  UNL1        0.0173
@<TRIPOS>BOND
     1     2     3    1
     2     3     4   ar
     3     4     5   ar
     4     5     6   ar
     5     6     7    1
     6     6     8   ar
     7     8     1    1
     8     1    17    1
     9    17    18    1
    10    18    19    1
    11    19    20    1
    12    20    21    1
    13    20    22    1
    14    19    23    1
    15    23    24    1
    16    23    25    1
    17     1    11    1
    18    11    12   ar
    19    12    13   ar
    20    13    14   ar
    21    14    15   ar
    22    15    16   ar
    23     8     9   ar
    24     9     3   ar
    25    16    11   ar
    26     7    10    1
@<TRIPOS>MOLECULE
*****
 25 26 0 0 0
SMALL
GASTEIGER

@<TRIPOS>ATOM
      1 C         141.1773  141.0501  166.1984 C.3     1  UNL1        0.0489
      2 C         140.2577  144.3988  170.0637 C.3     1  UNL1        0.0310
      3 C         140.9696  143.1890  169.5349 C.ar    1  UNL1       -0.0220
      4 C         141.9335  142.4438  170.4098 C.ar    1  UNL1       -0.0012
      5 C         142.6454  141.2340  169.8809 C.ar    1  UNL1        0.0360
      6 C         142.3933  140.7694  168.4772 C.ar    1  UNL1        0.1299
      7 O         143.1051  139.5597  167.9483 O.3     1  UNL1       -0.5058
      8 C         141.4294  141.5146  167.6023 C.ar    1  UNL1        0.0150
      9 C         140.7175  142.7244  168.1311 C.ar    1  UNL1       -0.0052
     10 H         143.7073  139.0942  168.4949 H       1  UNL1        0.2922
     11 C         140.3016  139.8580  165.9488 C.ar    1  UNL1       -0.0183
     12 C         138.9621  139.7584  166.6165 C.ar    1  UNL1       -0.0040
     13 C         138.0865  138.5664  166.3669 C.ar    1  UNL1       -0.0003
     14 C         138.5503  137.4740  165.4496 C.ar    1  UNL1       -0.0000
     15 C         139.8898  137.5736  164.7818 C.ar    1  UNL1       -0.0003
     16 C         140.7655  138.7656  165.0315 C.ar    1  UNL1       -0.0040
     17 C         141.8008  141.7775  165.0443 C.3     1  UNL1        0.0262
     18 C         140.9435  142.2672  163.9150 C.3     1  UNL1        0.0727
     19 N         140.2604  143.5989  164.0148 N.3     1  UNL1       -0.2752
     20 C         140.8896  144.8125  163.3974 C.3     1  UNL1        0.0575
     21 C         142.2502  145.2606  163.8424 C.3     1  UNL1        0.0173
     22 C         140.1581  145.5782  162.3349 C.3     1  UNL1        0.0173
     23 C         138.9483  143.7170  164.7320 C.3     1  UNL1        0.0575
     24 C         137.8913  142.6703  164.5390 C.3     1  UNL1        0.0173
     25 C         138.6931  144.8817  165.6421 C.3     1  UNL1        0.0173
@<TRIPOS>BOND
     1     2     3    1
     2     3     4   ar
     3     4     5   ar
     4     5     6   ar
     5     6     7    1
     6     6     8   ar
     7     8     1    1
     8     1    17    1
     9    17    18    1
    10    18    19    1
    11    19    20    1
    12    20    21    1
    13    20    22    1
    14    19    23    1
    15    23    24    1
    16    23    25    1
    17     1    11    1
    18    11    12   ar
    19    12    13   ar
    20    13    14   ar
    21    14    15   ar
    22    15    16   ar
    23     8     9   ar
    24     9     3   ar
    25    16    11   ar
    26     7    10    1
@<TRIPOS>MOLECULE
*****
 25 26 0 0 0
SMALL
GASTEIGER

@<TRIPOS>ATOM
      1 C         141.1716  142.6286  165.7109 C.3     1  UNL1        0.0489
      2 C         145.6933  141.7453  163.3079 C.3     1  UNL1        0.0310
      3 C         144.4932  142.6150  163.5390 C.ar    1  UNL1       -0.0220
      4 C         144.3538  143.9127  162.7998 C.ar    1  UNL1       -0.0012
      5 C         143.1537  144.7824  163.0309 C.ar    1  UNL1        0.0360
      6 C         142.0930  144.3544  164.0013 C.ar    1  UNL1        0.1299
      7 O         140.8929  145.2241  164.2324 O.3     1  UNL1       -0.5058
      8 C         142.2324  143.0567  164.7405 C.ar    1  UNL1        0.0150
      9 C         143.4325  142.1870  164.5094 C.ar    1  UNL1       -0.0052
     10 H         140.8058  146.0347  163.7706 H       1  UNL1        0.2922
     11 C         141.4216  142.7266  167.1867 C.ar    1  UNL1       -0.0183
     12 C         142.7347  142.2782  167.7563 C.ar    1  UNL1       -0.0040
     13 C         142.9847  142.3761  169.2321 C.ar    1  UNL1       -0.0003
     14 C         141.9216  142.9225  170.1383 C.ar    1  UNL1       -0.0000
     15 C         140.6084  143.3710  169.5686 C.ar    1  UNL1       -0.0003
     16 C         140.3584  143.2730  168.0929 C.ar    1  UNL1       -0.0040
     17 C         139.8609  142.1026  165.2056 C.3     1  UNL1        0.0262
     18 C         139.7495  140.6771  164.7521 C.3     1  UNL1        0.0727
     19 N         140.0192  139.5601  165.7162 N.3     1  UNL1       -0.2752
     20 C         139.1050  139.3413  166.8851 C.3     1  UNL1        0.0575
     21 C         137.8256  138.5794  166.7043 C.3     1  UNL1        0.0173
     22 C         139.4702  139.8843  168.2349 C.3     1  UNL1        0.0173
     23 C         141.2030  138.6620  165.5115 C.3     1  UNL1        0.0575
     24 C         141.0885  137.4620  164.6189 C.3     1  UNL1        0.0173
     25 C         142.5013  138.9638  166.1994 C.3     1  UNL1        0.0173
@<TRIPOS>BOND
     1     2     3    1
     2     3     4   ar
     3     4     5   ar
     4     5     6   ar
     5     6     7    1
     6     6     8   ar
     7     8     1    1
     8     1    17    1
     9    17    18    1
    10    18    19    1
    11    19    20    1
    12    20    21    1
    13    20    22    1
    14    19    23    1
    15    23    24    1
    16    23    25    1
    17     1    11    1
    18    11    12   ar
    19    12    13   ar
    20    13    14   ar
    21    14    15   ar
    22    15    16   ar
    23     8     9   ar
    24     9     3   ar
    25    16    11   ar
    26     7    10    1
@<TRIPOS>MOLECULE
*****
 25 26 0 0 0
SMALL
GASTEIGER

@<TRIPOS>ATOM
      1 C         139.9268  141.4569  165.7767 C.3     1  UNL1        0.0489
      2 C         136.9332  137.6157  167.5888 C.3     1  UNL1        0.0310
      3 C         137.9495  138.1174  166.6062 C.ar    1  UNL1       -0.0220
      4 C         138.4854  137.2002  165.5472 C.ar    1  UNL1       -0.0012
      5 C         139.5017  137.7019  164.5646 C.ar    1  UNL1        0.0360
      6 C         139.9822  139.1208  164.6411 C.ar    1  UNL1        0.1299
      7 O         140.9985  139.6225  163.6586 O.3     1  UNL1       -0.5058
      8 C         139.4463  140.0380  165.7002 C.ar    1  UNL1        0.0150
      9 C         138.4300  139.5363  166.6827 C.ar    1  UNL1       -0.0052
     10 H         141.3332  139.0495  162.9970 H       1  UNL1        0.2922
     11 C         139.3298  142.5003  164.8796 C.ar    1  UNL1       -0.0183
     12 C         139.8059  143.9204  164.9604 C.ar    1  UNL1       -0.0040
     13 C         139.2089  144.9638  164.0632 C.ar    1  UNL1       -0.0003
     14 C         138.1358  144.5871  163.0853 C.ar    1  UNL1       -0.0000
     15 C         137.6596  143.1669  163.0044 C.ar    1  UNL1       -0.0003
     16 C         138.2566  142.1235  163.9016 C.ar    1  UNL1       -0.0040
     17 C         141.0043  141.8324  166.7504 C.3     1  UNL1        0.0262
     18 C         142.2649  141.0226  166.8232 C.3     1  UNL1        0.0727
     19 N         143.2060  140.9934  165.6555 N.3     1  UNL1       -0.2752
     20 C         143.4733  142.2468  164.8762 C.3     1  UNL1        0.0575
     21 C         142.8352  142.4455  163.5333 C.3     1  UNL1        0.0173
     22 C         144.3787  143.3016  165.4398 C.3     1  UNL1        0.0173
     23 C         143.8797  139.7107  165.2672 C.3     1  UNL1        0.0575
     24 C         144.9865  139.7215  164.2550 C.3     1  UNL1        0.0173
     25 C         143.4465  138.4172  165.8911 C.3     1  UNL1        0.0173
@<TRIPOS>BOND
     1     2     3    1
     2     3     4   ar
     3     4     5   ar
     4     5     6   ar
     5     6     7    1
     6     6     8   ar
     7     8     1    1
     8     1    17    1
     9    17    18    1
    10    18    19    1
    11    19    20    1
    12    20    21    1
    13    20    22    1
    14    19    23    1
    15    23    24    1
    16    23    25    1
    17     1    11    1
    18    11    12   ar
    19    12    13   ar
    20    13    14   ar
    21    14    15   ar
    22    15    16   ar
    23     8     9   ar
    24     9     3   ar
    25    16    11   ar
    26     7    10    1
@<TRIPOS>MOLECULE
*****
 25 26 0 0 0
SMALL
GASTEIGER

@<TRIPOS>ATOM
      1 C         140.5497  142.3219  166.2650 C.3     1  UNL1        0.0489
      2 C         143.7517  144.9176  163.1012 C.3     1  UNL1        0.0310
      3 C         142.3630  144.6142  163.5804 C.ar    1  UNL1       -0.0220
      4 C         141.1868  145.3052  162.9569 C.ar    1  UNL1       -0.0012
      5 C         139.7981  145.0018  163.4361 C.ar    1  UNL1        0.0360
      6 C         139.5858  144.0074  164.5388 C.ar    1  UNL1        0.1299
      7 O         138.1971  143.7040  165.0179 O.3     1  UNL1       -0.5058
      8 C         140.7621  143.3164  165.1623 C.ar    1  UNL1        0.0150
      9 C         142.1507  143.6198  164.6831 C.ar    1  UNL1       -0.0052
     10 H         137.4623  144.1356  164.6284 H       1  UNL1        0.2922
     11 C         141.2004  142.5322  167.6001 C.ar    1  UNL1       -0.0183
     12 C         140.4321  143.1766  168.7157 C.ar    1  UNL1       -0.0040
     13 C         141.0827  143.3869  170.0507 C.ar    1  UNL1       -0.0003
     14 C         142.5016  142.9528  170.2703 C.ar    1  UNL1       -0.0000
     15 C         143.2700  142.3084  169.1547 C.ar    1  UNL1       -0.0003
     16 C         142.6193  142.0981  167.8196 C.ar    1  UNL1       -0.0040
     17 C         139.6868  141.1172  166.0327 C.3     1  UNL1        0.0262
     18 C         140.1403  139.7675  166.5046 C.3     1  UNL1        0.0727
     19 N         140.9876  138.9073  165.6145 N.3     1  UNL1       -0.2752
     20 C         140.3546  137.8169  164.8020 C.3     1  UNL1        0.0575
     21 C         141.2001  136.9645  163.9027 C.3     1  UNL1        0.0173
     22 C         138.8762  137.5786  164.8888 C.3     1  UNL1        0.0173
     23 C         142.4677  139.1377  165.5369 C.3     1  UNL1        0.0575
     24 C         143.0284  140.0715  164.5057 C.3     1  UNL1        0.0173
     25 C         143.3873  138.4342  166.4906 C.3     1  UNL1        0.0173
@<TRIPOS>BOND
     1     2     3    1
     2     3     4   ar
     3     4     5   ar
     4     5     6   ar
     5     6     7    1
     6     6     8   ar
     7     8     1    1
     8     1    17    1
     9    17    18    1
    10    18    19    1
    11    19    20    1
    12    20    21    1
    13    20    22    1
    14    19    23    1
    15    23    24    1
    16    23    25    1
    17     1    11    1
    18    11    12   ar
    19    12    13   ar
    20    13    14   ar
    21    14    15   ar
    22    15    16   ar
    23     8     9   ar
    24     9     3   ar
    25    16    11   ar
    26     7    10    1
@<TRIPOS>MOLECULE
*****
 25 26 0 0 0
SMALL
GASTEIGER

@<TRIPOS>ATOM
      1 C         141.9920  140.3850  166.7620 C.3     1  UNL1        0.0489
      2 C         140.4275  144.1444  169.9899 C.3     1  UNL1        0.0310
      3 C         141.0763  142.8105  169.7667 C.ar    1  UNL1       -0.0220
      4 C         141.5915  142.0224  170.9343 C.ar    1  UNL1       -0.0012
      5 C         142.2403  140.6885  170.7112 C.ar    1  UNL1        0.0360
      6 C         142.3738  140.1427  169.3204 C.ar    1  UNL1        0.1299
      7 O         143.0225  138.8087  169.0973 O.3     1  UNL1       -0.5058
      8 C         141.8585  140.9308  168.1528 C.ar    1  UNL1        0.0150
      9 C         141.2098  142.2647  168.3760 C.ar    1  UNL1       -0.0052
     10 H         143.3444  138.3164  169.8266 H       1  UNL1        0.2922
     11 C         140.9312  139.4821  166.2056 C.ar    1  UNL1       -0.0183
     12 C         141.2977  138.4135  165.2190 C.ar    1  UNL1       -0.0040
     13 C         140.2369  137.5106  164.6626 C.ar    1  UNL1       -0.0003
     14 C         138.8095  137.6764  165.0929 C.ar    1  UNL1       -0.0000
     15 C         138.4430  138.7451  166.0796 C.ar    1  UNL1       -0.0003
     16 C         139.5038  139.6480  166.6360 C.ar    1  UNL1       -0.0040
     17 C         143.1862  140.7421  165.9276 C.3     1  UNL1        0.0262
     18 C         143.4797  142.1794  165.6144 C.3     1  UNL1        0.0727
     19 N         142.8280  142.8382  164.4349 N.3     1  UNL1       -0.2752
     20 C         143.6291  143.7378  163.5411 C.3     1  UNL1        0.0575
     21 C         143.5484  145.2263  163.7083 C.3     1  UNL1        0.0173
     22 C         144.5109  143.1490  162.4801 C.3     1  UNL1        0.0173
     23 C         141.3753  142.5974  164.1492 C.3     1  UNL1        0.0575
     24 C         140.3255  143.3135  164.9461 C.3     1  UNL1        0.0173
     25 C         140.9724  141.6405  163.0667 C.3     1  UNL1        0.0173
@<TRIPOS>BOND
     1     2     3    1
     2     3     4   ar
     3     4     5   ar
     4     5     6   ar
     5     6     7    1
     6     6     8   ar
     7     8     1    1
     8     1    17    1
     9    17    18    1
    10    18    19    1
    11    19    20    1
    12    20    21    1
    13    20    22    1
    14    19    23    1
    15    23    24    1
    16    23    25    1
    17     1    11    1
    18    11    12   ar
    19    12    13   ar
    20    13    14   ar
    21    14    15   ar
    22    15    16   ar
    23     8     9   ar
    24     9     3   ar
    25    16    11   ar
    26     7    10    1
@<TRIPOS>MOLECULE
*****
 25 26 0 0 0
SMALL
GASTEIGER

@<TRIPOS>ATOM
      1 C         141.7825  140.9720  165.8899 C.3     1  UNL1        0.0489
      2 C         138.3450  144.8316  165.3536 C.3     1  UNL1        0.0310
      3 C         139.6644  144.2093  165.0044 C.ar    1  UNL1       -0.0220
      4 C         140.5844  144.8944  164.0379 C.ar    1  UNL1       -0.0012
      5 C         141.9038  144.2720  163.6887 C.ar    1  UNL1        0.0360
      6 C         142.3032  142.9646  164.3060 C.ar    1  UNL1        0.1299
      7 O         143.6226  142.3423  163.9568 O.3     1  UNL1       -0.5058
      8 C         141.3832  142.2795  165.2725 C.ar    1  UNL1        0.0150
      9 C         140.0638  142.9018  165.6217 C.ar    1  UNL1       -0.0052
     10 H         144.1973  142.7703  163.3531 H       1  UNL1        0.2922
     11 C         142.2479  140.9267  167.3151 C.ar    1  UNL1       -0.0183
     12 C         142.9156  142.1237  167.9245 C.ar    1  UNL1       -0.0040
     13 C         143.3810  142.0783  169.3497 C.ar    1  UNL1       -0.0003
     14 C         143.1787  140.8360  170.1656 C.ar    1  UNL1       -0.0000
     15 C         142.5110  139.6390  169.5563 C.ar    1  UNL1       -0.0003
     16 C         142.0456  139.6843  168.1310 C.ar    1  UNL1       -0.0040
     17 C         141.7164  139.7099  165.0820 C.3     1  UNL1        0.0262
     18 C         140.7547  139.6026  163.9358 C.3     1  UNL1        0.0727
     19 N         139.2890  139.4257  164.2006 N.3     1  UNL1       -0.2752
     20 C         138.8309  138.7259  165.4458 C.3     1  UNL1        0.0575
     21 C         138.5210  139.5187  166.6809 C.3     1  UNL1        0.0173
     22 C         138.6827  137.2333  165.4558 C.3     1  UNL1        0.0173
     23 C         138.2812  139.9487  163.2204 C.3     1  UNL1        0.0575
     24 C         137.6505  141.2921  163.4378 C.3     1  UNL1        0.0173
     25 C         137.9042  139.1283  162.0226 C.3     1  UNL1        0.0173
@<TRIPOS>BOND
     1     2     3    1
     2     3     4   ar
     3     4     5   ar
     4     5     6   ar
     5     6     7    1
     6     6     8   ar
     7     8     1    1
     8     1    17    1
     9    17    18    1
    10    18    19    1
    11    19    20    1
    12    20    21    1
    13    20    22    1
    14    19    23    1
    15    23    24    1
    16    23    25    1
    17     1    11    1
    18    11    12   ar
    19    12    13   ar
    20    13    14   ar
    21    14    15   ar
    22    15    16   ar
    23     8     9   ar
    24     9     3   ar
    25    16    11   ar
    26     7    10    1
@<TRIPOS>MOLECULE
*****
 25 26 0 0 0
SMALL
GASTEIGER

@<TRIPOS>ATOM
      1 C         141.7474  141.0118  165.8980 C.3     1  UNL1        0.0489
      2 C         138.2752  144.8348  165.3245 C.3     1  UNL1        0.0310
      3 C         139.6116  144.2346  165.0022 C.ar    1  UNL1       -0.0220
      4 C         140.5481  144.9455  164.0709 C.ar    1  UNL1       -0.0012
      5 C         141.8844  144.3452  163.7486 C.ar    1  UNL1        0.0360
      6 C         142.2842  143.0340  164.3576 C.ar    1  UNL1        0.1299
      7 O         143.6205  142.4337  164.0352 O.3     1  UNL1       -0.5058
      8 C         141.3477  142.3231  165.2889 C.ar    1  UNL1        0.0150
      9 C         140.0113  142.9234  165.6112 C.ar    1  UNL1       -0.0052
     10 H         144.2056  142.8778  163.4534 H       1  UNL1        0.2922
     11 C         142.2290  140.9601  167.3176 C.ar    1  UNL1       -0.0183
     12 C         142.8839  142.1618  167.9316 C.ar    1  UNL1       -0.0040
     13 C         143.3656  142.1100  169.3513 C.ar    1  UNL1       -0.0003
     14 C         143.1923  140.8567  170.1569 C.ar    1  UNL1       -0.0000
     15 C         142.5373  139.6550  169.5428 C.ar    1  UNL1       -0.0003
     16 C         142.0557  139.7067  168.1232 C.ar    1  UNL1       -0.0040
     17 C         141.6656  139.7524  165.0874 C.3     1  UNL1        0.0262
     18 C         140.7209  139.6685  163.9251 C.3     1  UNL1        0.0727
     19 N         139.2557  139.4536  164.1635 N.3     1  UNL1       -0.2752
     20 C         138.2520  139.9614  163.1713 C.3     1  UNL1        0.0575
     21 C         137.9000  139.1345  161.9703 C.3     1  UNL1        0.0173
     22 C         137.6004  141.2963  163.3799 C.3     1  UNL1        0.0173
     23 C         138.7942  138.7307  165.3942 C.3     1  UNL1        0.0575
     24 C         138.7358  137.2319  165.4061 C.3     1  UNL1        0.0173
     25 C         138.3911  139.5066  166.6129 C.3     1  UNL1        0.0173
@<TRIPOS>BOND
     1     2     3    1
     2     3     4   ar
     3     4     5   ar
     4     5     6   ar
     5     6     7    1
     6     6     8   ar
     7     8     1    1
     8     1    17    1
     9    17    18    1
    10    18    19    1
    11    19    20    1
    12    20    21    1
    13    20    22    1
    14    19    23    1
    15    23    24    1
    16    23    25    1
    17     1    11    1
    18    11    12   ar
    19    12    13   ar
    20    13    14   ar
    21    14    15   ar
    22    15    16   ar
    23     8     9   ar
    24     9     3   ar
    25    16    11   ar
    26     7    10    1
@<TRIPOS>MOLECULE
*****
 25 26 0 0 0
SMALL
GASTEIGER

@<TRIPOS>ATOM
      1 C         141.5749  142.0191  166.2074 C.3     1  UNL1        0.0489
      2 C         145.9832  141.6554  163.4807 C.3     1  UNL1        0.0310
      3 C         144.8259  140.9984  164.1728 C.ar    1  UNL1       -0.0220
      4 C         144.7153  139.5027  164.1936 C.ar    1  UNL1       -0.0012
      5 C         143.5580  138.8457  164.8856 C.ar    1  UNL1        0.0360
      6 C         142.5112  139.6845  165.5569 C.ar    1  UNL1        0.1299
      7 O         141.3538  139.0275  166.2490 O.3     1  UNL1       -0.5058
      8 C         142.6217  141.1802  165.5361 C.ar    1  UNL1        0.0150
      9 C         143.7791  141.8372  164.8441 C.ar    1  UNL1       -0.0052
     10 H         141.2848  138.0931  166.2619 H       1  UNL1        0.2922
     11 C         141.7237  142.3886  167.6535 C.ar    1  UNL1       -0.0183
     12 C         140.5546  142.9477  168.4089 C.ar    1  UNL1       -0.0040
     13 C         140.7034  143.3172  169.8550 C.ar    1  UNL1       -0.0003
     14 C         142.0213  143.1276  170.5458 C.ar    1  UNL1       -0.0000
     15 C         143.1904  142.5685  169.7905 C.ar    1  UNL1       -0.0003
     16 C         143.0416  142.1990  168.3443 C.ar    1  UNL1       -0.0040
     17 C         140.3794  142.4883  165.4326 C.3     1  UNL1        0.0262
     18 C         140.2380  143.9388  165.0772 C.3     1  UNL1        0.0727
     19 N         140.4914  144.3946  163.6708 N.3     1  UNL1       -0.2752
     20 C         141.8656  144.2783  163.0808 C.3     1  UNL1        0.0575
     21 C         142.1212  143.3160  161.9588 C.3     1  UNL1        0.0173
     22 C         142.9842  145.1242  163.6128 C.3     1  UNL1        0.0173
     23 C         139.3706  144.9666  162.8543 C.3     1  UNL1        0.0575
     24 C         139.6330  146.1056  161.9143 C.3     1  UNL1        0.0173
     25 C         137.9875  144.3995  162.9778 C.3     1  UNL1        0.0173
@<TRIPOS>BOND
     1     2     3    1
     2     3     4   ar
     3     4     5   ar
     4     5     6   ar
     5     6     7    1
     6     6     8   ar
     7     8     1    1
     8     1    17    1
     9    17    18    1
    10    18    19    1
    11    19    20    1
    12    20    21    1
    13    20    22    1
    14    19    23    1
    15    23    24    1
    16    23    25    1
    17     1    11    1
    18    11    12   ar
    19    12    13   ar
    20    13    14   ar
    21    14    15   ar
    22    15    16   ar
    23     8     9   ar
    24     9     3   ar
    25    16    11   ar
    26     7    10    1
