@<TRIPOS>MOLECULE
*****
 30 34 0 0 0
SMALL
GASTEIGER

@<TRIPOS>ATOM
      1 C         140.5183  138.1544  157.9212 C.3     1  UNL1        0.0181
      2 C         141.1806  138.6352  159.1783 C.3     1  UNL1        0.0036
      3 C         141.5502  139.1871  160.5233 C.3     1  UNL1        0.0227
      4 C         140.2895  139.6277  161.2060 C.3     1  UNL1        0.0870
      5 C         139.1405  139.3481  160.2831 C.3     1  UNL1        0.0227
      6 C         139.6913  138.7347  159.0300 C.3     1  UNL1        0.0036
      7 N         140.1943  140.2403  162.5719 N.ar    1  UNL1       -0.3092
      8 C         140.6526  141.6162  162.9550 C.ar    1  UNL1        0.1785
      9 N         140.3656  141.8108  164.4144 N.ar    1  UNL1       -0.2239
     10 C         139.7299  140.5551  164.9332 C.ar    1  UNL1        0.1010
     11 C         139.2337  140.1702  166.2954 C.ar    1  UNL1        0.0208
     12 C         138.6317  138.8146  166.5189 C.ar    1  UNL1        0.0039
     13 C         138.5258  137.8440  165.3802 C.ar    1  UNL1        0.0312
     14 C         139.0220  138.2289  164.0180 C.ar    1  UNL1        0.1573
     15 F         138.9161  137.2583  162.8793 F       1  UNL1       -0.2026
     16 C         139.6240  139.5845  163.7945 C.ar    1  UNL1        0.1066
     17 C         140.6135  137.5418  156.5554 C.3     1  UNL1        0.0718
     18 N         141.1573  136.1534  156.3923 N.am    1  UNL1       -0.3025
     19 C         142.6381  135.9181  156.4346 C.2     1  UNL1        0.2458
     20 O         143.5752  137.0713  156.6399 O.2     1  UNL1       -0.2701
     21 H         140.5423  135.3965  156.2576 H       1  UNL1        0.1497
     22 C         143.1819  134.5296  156.2715 C.ar    1  UNL1        0.0534
     23 C         142.9271  133.7684  155.0045 C.ar    1  UNL1        0.0054
     24 C         143.4709  132.3800  154.8414 C.ar    1  UNL1        0.0115
     25 C         144.2695  131.7528  155.9455 C.ar    1  UNL1        0.0577
     26 CL        144.8132  130.3644  155.7824 Cl      1  UNL1       -0.0822
     27 C         144.5243  132.5141  157.2125 C.ar    1  UNL1        0.0115
     28 C         143.9806  133.9025  157.3756 C.ar    1  UNL1        0.0054
     29 C         138.7926  138.9220  155.3188 C.3     1  UNL1        0.0017
     30 C         140.1649  138.3176  155.3524 C.3     1  UNL1        0.0196
@<TRIPOS>BOND
     1    29    30    1
     2    30    17    1
     3    17    18    1
     4    18    19   am
     5    19    20    2
     6    19    22    1
     7    22    23   ar
     8    23    24   ar
     9    24    25   ar
    10    25    26    1
    11    25    27   ar
    12    27    28   ar
    13     1    17    1
    14     1     2    1
    15     2     3    1
    16     3     4    1
    17     4     7    1
    18     7     8   ar
    19     8     9   ar
    20     9    10   ar
    21    10    11   ar
    22    11    12   ar
    23    12    13   ar
    24    13    14   ar
    25    14    15    1
    26    14    16   ar
    27     4     5    1
    28     6     5    1
    29    28    22   ar
    30     6     1    1
    31     6     2    1
    32    16     7   ar
    33    16    10   ar
    34    18    21    1
@<TRIPOS>MOLECULE
*****
 30 34 0 0 0
SMALL
GASTEIGER

@<TRIPOS>ATOM
      1 C         140.4896  145.1677  157.9326 C.3     1  UNL1        0.0181
      2 C         140.3793  145.4965  159.3921 C.3     1  UNL1        0.0036
      3 C         140.1614  145.5315  160.8758 C.3     1  UNL1        0.0227
      4 C         139.6244  144.1959  161.2972 C.3     1  UNL1        0.0870
      5 C         139.5102  143.3353  160.0740 C.3     1  UNL1        0.0227
      6 C         139.9768  144.1390  158.8965 C.3     1  UNL1        0.0036
      7 N         139.2646  143.7918  162.6962 N.ar    1  UNL1       -0.3092
      8 C         137.8806  143.7472  163.2727 C.ar    1  UNL1        0.1785
      9 N         137.9864  143.2892  164.6972 N.ar    1  UNL1       -0.2239
     10 C         139.4358  143.0506  165.0010 C.ar    1  UNL1        0.1010
     11 C         140.1383  142.5906  166.2439 C.ar    1  UNL1        0.0208
     12 C         141.6308  142.4413  166.2501 C.ar    1  UNL1        0.0039
     13 C         142.4208  142.7520  165.0135 C.ar    1  UNL1        0.0312
     14 C         141.7183  143.2119  163.7705 C.ar    1  UNL1        0.1573
     15 F         142.5083  143.5225  162.5339 F       1  UNL1       -0.2026
     16 C         140.2258  143.3612  163.7643 C.ar    1  UNL1        0.1066
     17 C         140.8493  145.5718  156.5337 C.3     1  UNL1        0.0718
     18 N         140.6840  146.9978  156.0989 N.am    1  UNL1       -0.3025
     19 C         139.4191  147.4333  155.4205 C.2     1  UNL1        0.2458
     20 O         138.3194  146.4427  155.1769 O.2     1  UNL1       -0.2701
     21 H         141.4058  147.6480  156.2589 H       1  UNL1        0.1497
     22 C         139.2538  148.8595  154.9858 C.ar    1  UNL1        0.0534
     23 C         139.7525  149.2959  153.6402 C.ar    1  UNL1        0.0054
     24 C         139.5872  150.7219  153.2054 C.ar    1  UNL1        0.0115
     25 C         138.9233  151.7116  154.1164 C.ar    1  UNL1        0.0577
     26 CL        138.7581  153.1376  153.6816 Cl      1  UNL1       -0.0822
     27 C         138.4246  151.2752  155.4620 C.ar    1  UNL1        0.0115
     28 C         138.5898  149.8491  155.8968 C.ar    1  UNL1        0.0054
     29 C         142.6029  144.8434  154.7605 C.3     1  UNL1        0.0017
     30 C         141.3744  144.5498  155.5693 C.3     1  UNL1        0.0196
@<TRIPOS>BOND
     1    29    30    1
     2    30    17    1
     3    17    18    1
     4    18    19   am
     5    19    20    2
     6    19    22    1
     7    22    23   ar
     8    23    24   ar
     9    24    25   ar
    10    25    26    1
    11    25    27   ar
    12    27    28   ar
    13     1    17    1
    14     1     2    1
    15     2     3    1
    16     3     4    1
    17     4     7    1
    18     7     8   ar
    19     8     9   ar
    20     9    10   ar
    21    10    11   ar
    22    11    12   ar
    23    12    13   ar
    24    13    14   ar
    25    14    15    1
    26    14    16   ar
    27     4     5    1
    28     6     5    1
    29    28    22   ar
    30     6     1    1
    31     6     2    1
    32    16     7   ar
    33    16    10   ar
    34    18    21    1
@<TRIPOS>MOLECULE
*****
 30 34 0 0 0
SMALL
GASTEIGER

@<TRIPOS>ATOM
      1 C         137.8933  140.9355  157.0748 C.3     1  UNL1        0.0181
      2 C         138.7124  139.7735  157.5535 C.3     1  UNL1        0.0036
      3 C         139.5772  138.7906  158.2857 C.3     1  UNL1        0.0227
      4 C         139.9679  139.4040  159.5975 C.3     1  UNL1        0.0870
      5 C         139.3445  140.7660  159.6763 C.3     1  UNL1        0.0227
      6 C         138.5685  140.9944  158.4131 C.3     1  UNL1        0.0036
      7 N         140.8305  138.7672  160.6465 N.ar    1  UNL1       -0.3092
      8 C         142.2930  138.4597  160.5179 C.ar    1  UNL1        0.1785
      9 N         142.7484  137.8286  161.8002 N.ar    1  UNL1       -0.2239
     10 C         141.5674  137.7460  162.7213 C.ar    1  UNL1        0.1010
     11 C         141.4182  137.2176  164.1171 C.ar    1  UNL1        0.0208
     12 C         140.0836  137.2692  164.7999 C.ar    1  UNL1        0.0039
     13 C         138.8983  137.8493  164.0869 C.ar    1  UNL1        0.0312
     14 C         139.0475  138.3778  162.6910 C.ar    1  UNL1        0.1573
     15 F         137.8621  138.9579  161.9780 F       1  UNL1       -0.2026
     16 C         140.3820  138.3261  162.0082 C.ar    1  UNL1        0.1066
     17 C         137.0308  141.5723  156.0259 C.3     1  UNL1        0.0718
     18 N         135.5376  141.5478  156.1665 N.am    1  UNL1       -0.3025
     19 C         134.7707  140.3096  155.8077 C.2     1  UNL1        0.2458
     20 O         135.4970  139.0958  155.3084 O.2     1  UNL1       -0.2701
     21 H         135.0609  142.3444  156.4942 H       1  UNL1        0.1497
     22 C         133.2774  140.2851  155.9482 C.ar    1  UNL1        0.0534
     23 C         132.4521  141.4006  155.3788 C.ar    1  UNL1        0.0054
     24 C         130.9589  141.3761  155.5193 C.ar    1  UNL1        0.0115
     25 C         130.2911  140.2361  156.2293 C.ar    1  UNL1        0.0577
     26 CL        128.7979  140.2116  156.3699 Cl      1  UNL1       -0.0822
     27 C         131.1164  139.1205  156.7989 C.ar    1  UNL1        0.0115
     28 C         132.6096  139.1449  156.6583 C.ar    1  UNL1        0.0054
     29 C         136.8890  143.2466  154.0443 C.3     1  UNL1        0.0017
     30 C         137.6613  142.2336  154.8363 C.3     1  UNL1        0.0196
@<TRIPOS>BOND
     1    29    30    1
     2    30    17    1
     3    17    18    1
     4    18    19   am
     5    19    20    2
     6    19    22    1
     7    22    23   ar
     8    23    24   ar
     9    24    25   ar
    10    25    26    1
    11    25    27   ar
    12    27    28   ar
    13     1    17    1
    14     1     2    1
    15     2     3    1
    16     3     4    1
    17     4     7    1
    18     7     8   ar
    19     8     9   ar
    20     9    10   ar
    21    10    11   ar
    22    11    12   ar
    23    12    13   ar
    24    13    14   ar
    25    14    15    1
    26    14    16   ar
    27     4     5    1
    28     6     5    1
    29    28    22   ar
    30     6     1    1
    31     6     2    1
    32    16     7   ar
    33    16    10   ar
    34    18    21    1
@<TRIPOS>MOLECULE
*****
 30 34 0 0 0
SMALL
GASTEIGER

@<TRIPOS>ATOM
      1 C         141.9638  138.6306  159.8382 C.3     1  UNL1        0.0181
      2 C         141.4271  138.0646  161.1195 C.3     1  UNL1        0.0036
      3 C         140.8389  137.7995  162.4737 C.3     1  UNL1        0.0227
      4 C         140.4799  139.1191  163.0898 C.3     1  UNL1        0.0870
      5 C         140.8463  140.2000  162.1164 C.3     1  UNL1        0.0227
      6 C         141.4317  139.5483  160.8988 C.3     1  UNL1        0.0036
      7 N         139.8629  139.3222  164.4418 N.ar    1  UNL1       -0.3092
      8 C         138.3942  139.3586  164.7443 C.ar    1  UNL1        0.1785
      9 N         138.2299  139.5835  166.2182 N.ar    1  UNL1       -0.2239
     10 C         139.5971  139.6862  166.8266 C.ar    1  UNL1        0.1010
     11 C         140.0534  139.9059  168.2385 C.ar    1  UNL1        0.0208
     12 C         141.5190  139.9641  168.5526 C.ar    1  UNL1        0.0039
     13 C         142.5282  139.8026  167.4547 C.ar    1  UNL1        0.0312
     14 C         142.0719  139.5829  166.0428 C.ar    1  UNL1        0.1573
     15 F         143.0812  139.4214  164.9450 F       1  UNL1       -0.2026
     16 C         140.6064  139.5247  165.7288 C.ar    1  UNL1        0.1066
     17 C         142.5807  138.4275  158.4862 C.3     1  UNL1        0.0718
     18 N         143.1443  137.0886  158.1125 N.am    1  UNL1       -0.3025
     19 C         142.4287  136.2252  157.1162 C.2     1  UNL1        0.2458
     20 O         141.1495  136.7007  156.4938 O.2     1  UNL1       -0.2701
     21 H         143.9839  136.7765  158.5210 H       1  UNL1        0.1497
     22 C         142.9924  134.8863  156.7425 C.ar    1  UNL1        0.0534
     23 C         142.6977  134.2983  155.3944 C.ar    1  UNL1        0.0054
     24 C         143.2613  132.9594  155.0207 C.ar    1  UNL1        0.0115
     25 C         144.1196  132.2085  155.9951 C.ar    1  UNL1        0.0577
     26 CL        144.6832  130.8696  155.6213 Cl      1  UNL1       -0.0822
     27 C         144.4143  132.7965  157.3432 C.ar    1  UNL1        0.0115
     28 C         143.8507  134.1354  157.7169 C.ar    1  UNL1        0.0054
     29 C         143.9255  140.2883  157.2700 C.3     1  UNL1        0.0017
     30 C         142.6342  139.5633  157.5078 C.3     1  UNL1        0.0196
@<TRIPOS>BOND
     1    29    30    1
     2    30    17    1
     3    17    18    1
     4    18    19   am
     5    19    20    2
     6    19    22    1
     7    22    23   ar
     8    23    24   ar
     9    24    25   ar
    10    25    26    1
    11    25    27   ar
    12    27    28   ar
    13     1    17    1
    14     1     2    1
    15     2     3    1
    16     3     4    1
    17     4     7    1
    18     7     8   ar
    19     8     9   ar
    20     9    10   ar
    21    10    11   ar
    22    11    12   ar
    23    12    13   ar
    24    13    14   ar
    25    14    15    1
    26    14    16   ar
    27     4     5    1
    28     6     5    1
    29    28    22   ar
    30     6     1    1
    31     6     2    1
    32    16     7   ar
    33    16    10   ar
    34    18    21    1
@<TRIPOS>MOLECULE
*****
 30 34 0 0 0
SMALL
GASTEIGER

@<TRIPOS>ATOM
      1 C         142.3618  142.9742  161.6496 C.3     1  UNL1        0.0181
      2 C         142.8911  141.9261  160.7161 C.3     1  UNL1        0.0036
      3 C         143.4214  141.1118  159.5734 C.3     1  UNL1        0.0227
      4 C         143.5372  142.0105  158.3781 C.3     1  UNL1        0.0870
      5 C         143.0785  143.3804  158.7819 C.3     1  UNL1        0.0227
      6 C         142.6792  143.3282  160.2269 C.3     1  UNL1        0.0036
      7 N         144.0260  141.6098  157.0177 N.ar    1  UNL1       -0.3092
      8 C         143.2159  140.9277  155.9554 C.ar    1  UNL1        0.1785
      9 N         144.0999  140.7173  154.7620 N.ar    1  UNL1       -0.2239
     10 C         145.4563  141.2693  155.0867 C.ar    1  UNL1        0.1010
     11 C         146.7271  141.3409  154.2931 C.ar    1  UNL1        0.0208
     12 C         147.9522  141.9641  154.8936 C.ar    1  UNL1        0.0039
     13 C         147.9065  142.5157  156.2877 C.ar    1  UNL1        0.0312
     14 C         146.6357  142.4441  157.0814 C.ar    1  UNL1        0.1573
     15 F         146.5900  142.9958  158.4755 F       1  UNL1       -0.2026
     16 C         145.4106  141.8209  156.4809 C.ar    1  UNL1        0.1066
     17 C         141.8731  143.3749  163.0099 C.3     1  UNL1        0.0718
     18 N         140.8712  142.5207  163.7286 N.am    1  UNL1       -0.3025
     19 C         141.3017  141.2299  164.3598 C.2     1  UNL1        0.2458
     20 O         142.7341  140.7933  164.2724 O.2     1  UNL1       -0.2701
     21 H         139.9311  142.8073  163.7860 H       1  UNL1        0.1497
     22 C         140.2997  140.3756  165.0785 C.ar    1  UNL1        0.0534
     23 C         140.0758  140.5595  166.5502 C.ar    1  UNL1        0.0054
     24 C         139.0739  139.7054  167.2689 C.ar    1  UNL1        0.0115
     25 C         138.2960  138.6672  166.5159 C.ar    1  UNL1        0.0577
     26 CL        137.2941  137.8131  167.2346 Cl      1  UNL1       -0.0822
     27 C         138.5199  138.4833  165.0441 C.ar    1  UNL1        0.0115
     28 C         139.5218  139.3375  164.3254 C.ar    1  UNL1        0.0054
     29 C         143.8205  145.0311  163.4734 C.3     1  UNL1        0.0017
     30 C         142.3862  144.6299  163.6516 C.3     1  UNL1        0.0196
@<TRIPOS>BOND
     1    29    30    1
     2    30    17    1
     3    17    18    1
     4    18    19   am
     5    19    20    2
     6    19    22    1
     7    22    23   ar
     8    23    24   ar
     9    24    25   ar
    10    25    26    1
    11    25    27   ar
    12    27    28   ar
    13     1    17    1
    14     1     2    1
    15     2     3    1
    16     3     4    1
    17     4     7    1
    18     7     8   ar
    19     8     9   ar
    20     9    10   ar
    21    10    11   ar
    22    11    12   ar
    23    12    13   ar
    24    13    14   ar
    25    14    15    1
    26    14    16   ar
    27     4     5    1
    28     6     5    1
    29    28    22   ar
    30     6     1    1
    31     6     2    1
    32    16     7   ar
    33    16    10   ar
    34    18    21    1
@<TRIPOS>MOLECULE
*****
 30 34 0 0 0
SMALL
GASTEIGER

@<TRIPOS>ATOM
      1 C         136.9769  141.0067  156.8681 C.3     1  UNL1        0.0181
      2 C         137.7983  141.0416  158.1228 C.3     1  UNL1        0.0036
      3 C         138.7000  141.3629  159.2777 C.3     1  UNL1        0.0227
      4 C         139.2557  142.7395  159.0630 C.3     1  UNL1        0.0870
      5 C         138.6974  143.2691  157.7754 C.3     1  UNL1        0.0227
      6 C         137.7967  142.2198  157.1943 C.3     1  UNL1        0.0036
      7 N         140.2032  143.4600  159.9757 N.ar    1  UNL1       -0.3092
      8 C         141.5931  143.9056  159.6299 C.ar    1  UNL1        0.1785
      9 N         142.1761  144.5825  160.8349 N.ar    1  UNL1       -0.2239
     10 C         141.1465  144.5552  161.9254 C.ar    1  UNL1        0.1010
     11 C         141.1618  145.0724  163.3333 C.ar    1  UNL1        0.0208
     12 C         139.9577  144.8959  164.2101 C.ar    1  UNL1        0.0039
     13 C         138.7383  144.2022  163.6791 C.ar    1  UNL1        0.0312
     14 C         138.7231  143.6850  162.2712 C.ar    1  UNL1        0.1573
     15 F         137.5038  142.9912  161.7402 F       1  UNL1       -0.2026
     16 C         139.9272  143.8615  161.3944 C.ar    1  UNL1        0.1066
     17 C         136.0294  140.2862  155.9555 C.3     1  UNL1        0.0718
     18 N         134.7056  139.8084  156.4744 N.am    1  UNL1       -0.3025
     19 C         133.4445  140.5173  156.0782 C.2     1  UNL1        0.2458
     20 O         133.5072  141.7042  155.1630 O.2     1  UNL1       -0.2701
     21 H         134.6645  139.0294  157.0751 H       1  UNL1        0.1497
     22 C         132.1207  140.0395  156.5971 C.ar    1  UNL1        0.0534
     23 C         130.8493  140.6387  156.0735 C.ar    1  UNL1        0.0054
     24 C         129.5255  140.1608  156.5924 C.ar    1  UNL1        0.0115
     25 C         129.4732  139.0837  157.6350 C.ar    1  UNL1        0.0577
     26 CL        128.1494  138.6059  158.1539 Cl      1  UNL1       -0.0822
     27 C         130.7447  138.4845  158.1587 C.ar    1  UNL1        0.0115
     28 C         132.0684  138.9623  157.6398 C.ar    1  UNL1        0.0054
     29 C         136.2195  138.6833  153.9197 C.3     1  UNL1        0.0017
     30 C         136.4055  140.0435  154.5238 C.3     1  UNL1        0.0196
@<TRIPOS>BOND
     1    29    30    1
     2    30    17    1
     3    17    18    1
     4    18    19   am
     5    19    20    2
     6    19    22    1
     7    22    23   ar
     8    23    24   ar
     9    24    25   ar
    10    25    26    1
    11    25    27   ar
    12    27    28   ar
    13     1    17    1
    14     1     2    1
    15     2     3    1
    16     3     4    1
    17     4     7    1
    18     7     8   ar
    19     8     9   ar
    20     9    10   ar
    21    10    11   ar
    22    11    12   ar
    23    12    13   ar
    24    13    14   ar
    25    14    15    1
    26    14    16   ar
    27     4     5    1
    28     6     5    1
    29    28    22   ar
    30     6     1    1
    31     6     2    1
    32    16     7   ar
    33    16    10   ar
    34    18    21    1
@<TRIPOS>MOLECULE
*****
 30 34 0 0 0
SMALL
GASTEIGER

@<TRIPOS>ATOM
      1 C         137.4124  141.4009  157.2526 C.3     1  UNL1        0.0181
      2 C         138.0385  140.8098  158.4809 C.3     1  UNL1        0.0036
      3 C         138.7696  140.5106  159.7561 C.3     1  UNL1        0.0227
      4 C         139.4027  141.7825  160.2370 C.3     1  UNL1        0.0870
      5 C         139.0629  142.8680  159.2590 C.3     1  UNL1        0.0227
      6 C         138.2198  142.2668  158.1737 C.3     1  UNL1        0.0036
      7 N         140.2303  141.9412  161.4779 N.ar    1  UNL1       -0.3092
      8 C         141.6403  141.4647  161.6642 C.ar    1  UNL1        0.1785
      9 N         142.0745  141.8334  163.0519 N.ar    1  UNL1       -0.2239
     10 C         140.9329  142.5377  163.7231 C.ar    1  UNL1        0.1010
     11 C         140.7840  143.1269  165.0945 C.ar    1  UNL1        0.0208
     12 C         139.4952  143.7828  165.4930 C.ar    1  UNL1        0.0039
     13 C         138.3554  143.8495  164.5202 C.ar    1  UNL1        0.0312
     14 C         138.5043  143.2602  163.1489 C.ar    1  UNL1        0.1573
     15 F         137.3645  143.3269  162.1761 F       1  UNL1       -0.2026
     16 C         139.7930  142.6044  162.7504 C.ar    1  UNL1        0.1066
     17 C         136.5849  141.2423  156.0117 C.3     1  UNL1        0.0718
     18 N         135.0973  141.4244  156.0739 N.am    1  UNL1       -0.3025
     19 C         134.1909  140.2340  155.9678 C.2     1  UNL1        0.2458
     20 O         134.7720  138.8614  155.7995 O.2     1  UNL1       -0.2701
     21 H         134.7159  142.3253  156.1843 H       1  UNL1        0.1497
     22 C         132.7032  140.4162  156.0299 C.ar    1  UNL1        0.0534
     23 C         131.8727  139.5151  156.8948 C.ar    1  UNL1        0.0054
     24 C         130.3852  139.6972  156.9570 C.ar    1  UNL1        0.0115
     25 C         129.7280  140.7806  156.1542 C.ar    1  UNL1        0.0577
     26 CL        128.2405  140.9628  156.2164 Cl      1  UNL1       -0.0822
     27 C         130.5585  141.6818  155.2892 C.ar    1  UNL1        0.0115
     28 C         132.0461  141.4997  155.2271 C.ar    1  UNL1        0.0054
     29 C         136.8698  141.6446  153.4608 C.3     1  UNL1        0.0017
     30 C         137.2449  140.9014  154.7085 C.3     1  UNL1        0.0196
@<TRIPOS>BOND
     1    29    30    1
     2    30    17    1
     3    17    18    1
     4    18    19   am
     5    19    20    2
     6    19    22    1
     7    22    23   ar
     8    23    24   ar
     9    24    25   ar
    10    25    26    1
    11    25    27   ar
    12    27    28   ar
    13     1    17    1
    14     1     2    1
    15     2     3    1
    16     3     4    1
    17     4     7    1
    18     7     8   ar
    19     8     9   ar
    20     9    10   ar
    21    10    11   ar
    22    11    12   ar
    23    12    13   ar
    24    13    14   ar
    25    14    15    1
    26    14    16   ar
    27     4     5    1
    28     6     5    1
    29    28    22   ar
    30     6     1    1
    31     6     2    1
    32    16     7   ar
    33    16    10   ar
    34    18    21    1
@<TRIPOS>MOLECULE
*****
 30 34 0 0 0
SMALL
GASTEIGER

@<TRIPOS>ATOM
      1 C         141.9380  138.4384  158.2038 C.3     1  UNL1        0.0181
      2 C         141.5398  138.9353  159.5620 C.3     1  UNL1        0.0036
      3 C         141.4505  139.4681  160.9614 C.3     1  UNL1        0.0227
      4 C         142.8443  139.7435  161.4424 C.3     1  UNL1        0.0870
      5 C         143.7951  139.3809  160.3404 C.3     1  UNL1        0.0227
      6 C         142.9889  138.8815  159.1782 C.3     1  UNL1        0.0036
      7 N         143.2212  140.2862  162.7891 N.ar    1  UNL1       -0.3092
      8 C         143.4390  139.4800  164.0351 C.ar    1  UNL1        0.1785
      9 N         143.7988  140.4259  165.1422 N.ar    1  UNL1       -0.2239
     10 C         143.8035  141.8167  164.5804 C.ar    1  UNL1        0.1010
     11 C         144.0867  143.1506  165.2052 C.ar    1  UNL1        0.0208
     12 C         144.0128  144.3982  164.3757 C.ar    1  UNL1        0.0039
     13 C         143.6558  144.3118  162.9214 C.ar    1  UNL1        0.0312
     14 C         143.3726  142.9779  162.2966 C.ar    1  UNL1        0.1573
     15 F         143.0156  142.8916  160.8422 F       1  UNL1       -0.2026
     16 C         143.4465  141.7304  163.1261 C.ar    1  UNL1        0.1066
     17 C         141.5611  137.8957  156.8573 C.3     1  UNL1        0.0718
     18 N         141.4057  136.4167  156.6613 N.am    1  UNL1       -0.3025
     19 C         142.6098  135.5662  156.3844 C.2     1  UNL1        0.2458
     20 O         143.9694  136.1946  156.3034 O.2     1  UNL1       -0.2701
     21 H         140.5133  136.0043  156.7145 H       1  UNL1        0.1497
     22 C         142.4543  134.0871  156.1885 C.ar    1  UNL1        0.0534
     23 C         143.3092  133.1332  156.9689 C.ar    1  UNL1        0.0054
     24 C         143.1537  131.6542  156.7730 C.ar    1  UNL1        0.0115
     25 C         142.1432  131.1292  155.7966 C.ar    1  UNL1        0.0577
     26 CL        141.9878  129.6502  155.6008 Cl      1  UNL1       -0.0822
     27 C         141.2883  132.0831  155.0162 C.ar    1  UNL1        0.0115
     28 C         141.4438  133.5621  155.2121 C.ar    1  UNL1        0.0054
     29 C         142.4169  139.7958  155.3056 C.3     1  UNL1        0.0017
     30 C         141.3397  138.8321  155.7064 C.3     1  UNL1        0.0196
@<TRIPOS>BOND
     1    29    30    1
     2    30    17    1
     3    17    18    1
     4    18    19   am
     5    19    20    2
     6    19    22    1
     7    22    23   ar
     8    23    24   ar
     9    24    25   ar
    10    25    26    1
    11    25    27   ar
    12    27    28   ar
    13     1    17    1
    14     1     2    1
    15     2     3    1
    16     3     4    1
    17     4     7    1
    18     7     8   ar
    19     8     9   ar
    20     9    10   ar
    21    10    11   ar
    22    11    12   ar
    23    12    13   ar
    24    13    14   ar
    25    14    15    1
    26    14    16   ar
    27     4     5    1
    28     6     5    1
    29    28    22   ar
    30     6     1    1
    31     6     2    1
    32    16     7   ar
    33    16    10   ar
    34    18    21    1
@<TRIPOS>MOLECULE
*****
 30 34 0 0 0
SMALL
GASTEIGER

@<TRIPOS>ATOM
      1 C         144.1743  140.1508  156.8170 C.3     1  UNL1        0.0181
      2 C         143.2430  140.5112  157.9363 C.3     1  UNL1        0.0036
      3 C         142.5220  141.0969  159.1142 C.3     1  UNL1        0.0227
      4 C         143.3332  142.2491  159.6282 C.3     1  UNL1        0.0870
      5 C         144.5556  142.3756  158.7681 C.3     1  UNL1        0.0227
      6 C         144.4998  141.3016  157.7225 C.3     1  UNL1        0.0036
      7 N         142.9835  143.1216  160.7972 N.ar    1  UNL1       -0.3092
      8 C         141.9662  144.2239  160.8014 C.ar    1  UNL1        0.1785
      9 N         141.9437  144.8286  162.1740 N.ar    1  UNL1       -0.2239
     10 C         142.9470  144.0999  163.0180 C.ar    1  UNL1        0.1010
     11 C         143.3585  144.2607  164.4514 C.ar    1  UNL1        0.0208
     12 C         144.4126  143.3666  165.0340 C.ar    1  UNL1        0.0039
     13 C         145.0552  142.3116  164.1830 C.ar    1  UNL1        0.0312
     14 C         144.6437  142.1508  162.7496 C.ar    1  UNL1        0.1573
     15 F         145.2864  141.0958  161.8987 F       1  UNL1       -0.2026
     16 C         143.5897  143.0449  162.1671 C.ar    1  UNL1        0.1066
     17 C         144.5240  139.2783  155.6482 C.3     1  UNL1        0.0718
     18 N         144.3484  137.7917  155.7428 N.am    1  UNL1       -0.3025
     19 C         142.9740  137.1936  155.6842 C.2     1  UNL1        0.2458
     20 O         141.7753  138.0822  155.5309 O.2     1  UNL1       -0.2701
     21 H         145.1351  137.2084  155.8434 H       1  UNL1        0.1497
     22 C         142.7983  135.7069  155.7788 C.ar    1  UNL1        0.0534
     23 C         141.5898  135.0546  155.1757 C.ar    1  UNL1        0.0054
     24 C         141.4141  133.5679  155.2703 C.ar    1  UNL1        0.0115
     25 C         142.4470  132.7336  155.9681 C.ar    1  UNL1        0.0577
     26 CL        142.2713  131.2469  156.0628 Cl      1  UNL1       -0.0822
     27 C         143.6556  133.3859  156.5713 C.ar    1  UNL1        0.0115
     28 C         143.8313  134.8725  156.4767 C.ar    1  UNL1        0.0054
     29 C         146.0485  141.0092  154.4523 C.3     1  UNL1        0.0017
     30 C         145.0495  139.8925  154.3845 C.3     1  UNL1        0.0196
@<TRIPOS>BOND
     1    29    30    1
     2    30    17    1
     3    17    18    1
     4    18    19   am
     5    19    20    2
     6    19    22    1
     7    22    23   ar
     8    23    24   ar
     9    24    25   ar
    10    25    26    1
    11    25    27   ar
    12    27    28   ar
    13     1    17    1
    14     1     2    1
    15     2     3    1
    16     3     4    1
    17     4     7    1
    18     7     8   ar
    19     8     9   ar
    20     9    10   ar
    21    10    11   ar
    22    11    12   ar
    23    12    13   ar
    24    13    14   ar
    25    14    15    1
    26    14    16   ar
    27     4     5    1
    28     6     5    1
    29    28    22   ar
    30     6     1    1
    31     6     2    1
    32    16     7   ar
    33    16    10   ar
    34    18    21    1
