@<TRIPOS>MOLECULE
*****
 34 38 0 0 0
SMALL
GASTEIGER

@<TRIPOS>ATOM
      1 N         141.4088  142.6880  163.3505 N.ar    1  UNL1       -0.2299
      2 C         142.0067  142.1951  164.6348 C.ar    1  UNL1        0.2753
      3 O         143.4382  141.7484  164.6729 O.2     1  UNL1       -0.2656
      4 C         141.1732  142.1489  165.8810 C.ar    1  UNL1        0.0603
      5 C         139.7417  142.5956  165.8429 C.ar    1  UNL1        0.0454
      6 C         139.1439  143.0885  164.5586 C.ar    1  UNL1        0.1850
      7 N         137.7720  143.5901  164.2176 N.ar    1  UNL1       -0.1270
      8 N         137.7577  143.9464  162.7606 N.ar    1  UNL1       -0.1269
      9 C         139.1207  143.6649  162.2011 C.ar    1  UNL1        0.1878
     10 N         139.9774  143.1347  163.3124 N.ar    1  UNL1       -0.2084
     11 C         139.5513  143.8765  160.7799 C.ar    1  UNL1        0.0755
     12 C         140.2025  145.1665  160.3777 C.ar    1  UNL1        0.1439
     13 F         140.4231  146.2449  161.3967 F       1  UNL1       -0.2040
     14 C         140.6332  145.3781  158.9565 C.ar    1  UNL1        0.0298
     15 C         140.4126  144.2997  157.9375 C.ar    1  UNL1        0.0032
     16 C         139.7614  143.0097  158.3398 C.ar    1  UNL1        0.0116
     17 C         139.3307  142.7980  159.7609 C.ar    1  UNL1        0.0628
     18 CL        138.6795  141.5080  160.1631 Cl      1  UNL1       -0.0821
     19 C         141.7712  141.6560  167.1654 C.ar    1  UNL1        0.0009
     20 C         142.5152  142.6039  168.0587 C.ar    1  UNL1        0.0043
     21 C         143.1131  142.1111  169.3431 C.ar    1  UNL1        0.0533
     22 C         142.9670  140.6703  169.7341 C.ar    1  UNL1        0.0042
     23 C         142.2230  139.7225  168.8408 C.ar    1  UNL1       -0.0041
     24 C         141.6251  140.2153  167.5565 C.ar    1  UNL1       -0.0217
     25 C         140.8810  139.2675  166.6631 C.3     1  UNL1        0.0310
     26 C         143.8571  143.0589  170.2364 C.2     1  UNL1        0.2458
     27 O         143.1331  143.7774  171.3363 O.2     1  UNL1       -0.2701
     28 N         145.3250  143.2883  170.0298 N.am    1  UNL1       -0.3025
     29 H         145.8001  142.8168  169.3079 H       1  UNL1        0.1497
     30 C         146.0689  144.2362  170.9232 C.3     1  UNL1        0.0720
     31 C         147.3174  144.6142  171.6638 C.3     1  UNL1        0.0213
     32 C         146.1088  145.5002  171.7300 C.3     1  UNL1        0.0213
     33 C         143.2228  143.8507  161.8986 C.3     1  UNL1        0.0285
     34 C         142.2424  142.7342  162.1043 C.3     1  UNL1        0.1293
@<TRIPOS>BOND
     1    33    34    1
     2    34     1    1
     3     1     2   ar
     4     2     3    2
     5     2     4   ar
     6     4    19    1
     7    19    20   ar
     8    20    21   ar
     9    21    26    1
    10    26    27    2
    11    26    28   am
    12    28    30    1
    13    30    31    1
    14    31    32    1
    15    21    22   ar
    16    22    23   ar
    17    23    24   ar
    18    24    25    1
    19     4     5   ar
    20     5     6   ar
    21     6     7   ar
    22     7     8   ar
    23     8     9   ar
    24     9    11    1
    25    11    12   ar
    26    12    13    1
    27    12    14   ar
    28    14    15   ar
    29    15    16   ar
    30    16    17   ar
    31    17    18    1
    32     9    10   ar
    33    10     1   ar
    34    24    19   ar
    35    10     6   ar
    36    32    30    1
    37    17    11   ar
    38    28    29    1
@<TRIPOS>MOLECULE
*****
 34 38 0 0 0
SMALL
GASTEIGER

@<TRIPOS>ATOM
      1 N         141.5053  141.2485  164.9708 N.ar    1  UNL1       -0.2299
      2 C         141.5766  141.0802  163.4820 C.ar    1  UNL1        0.2753
      3 O         140.8708  142.0515  162.5828 O.2     1  UNL1       -0.2656
      4 C         142.3537  139.9407  162.8924 C.ar    1  UNL1        0.0603
      5 C         143.0595  138.9694  163.7916 C.ar    1  UNL1        0.0454
      6 C         142.9881  139.1377  165.2804 C.ar    1  UNL1        0.1850
      7 N         143.5766  138.3446  166.4094 N.ar    1  UNL1       -0.1270
      8 N         143.1632  138.9941  167.6968 N.ar    1  UNL1       -0.1269
      9 C         142.3193  140.1885  167.3634 C.ar    1  UNL1        0.1878
     10 N         142.2110  140.2772  165.8700 N.ar    1  UNL1       -0.2084
     11 C         141.6935  141.1289  168.3503 C.ar    1  UNL1        0.0755
     12 C         142.4834  142.2841  168.8903 C.ar    1  UNL1        0.1439
     13 F         143.8991  142.4988  168.4434 F       1  UNL1       -0.2040
     14 C         141.8576  143.2246  169.8772 C.ar    1  UNL1        0.0298
     15 C         140.4419  143.0100  170.3240 C.ar    1  UNL1        0.0032
     16 C         139.6520  141.8547  169.7839 C.ar    1  UNL1        0.0116
     17 C         140.2777  140.9142  168.7971 C.ar    1  UNL1        0.0628
     18 CL        139.4878  139.7591  168.2571 Cl      1  UNL1       -0.0821
     19 C         142.4250  139.7724  161.4035 C.ar    1  UNL1        0.0009
     20 C         143.4175  140.5653  160.6058 C.ar    1  UNL1        0.0043
     21 C         143.4889  140.3970  159.1170 C.ar    1  UNL1        0.0533
     22 C         142.5677  139.4359  158.4259 C.ar    1  UNL1        0.0042
     23 C         141.5751  138.6431  159.2236 C.ar    1  UNL1       -0.0041
     24 C         141.5038  138.8113  160.7124 C.ar    1  UNL1       -0.0217
     25 C         140.5113  138.0185  161.5101 C.3     1  UNL1        0.0310
     26 C         144.4814  141.1898  158.3193 C.2     1  UNL1        0.2458
     27 O         144.7669  142.6169  158.6827 O.2     1  UNL1       -0.2701
     28 N         145.1884  140.5556  157.1583 N.am    1  UNL1       -0.3025
     29 H         145.0010  139.6190  156.9198 H       1  UNL1        0.1497
     30 C         146.1809  141.3485  156.3606 C.3     1  UNL1        0.0720
     31 C         146.7878  141.7174  155.0394 C.3     1  UNL1        0.0213
     32 C         147.2932  142.3531  156.3005 C.3     1  UNL1        0.0213
     33 C         139.2290  142.3771  165.5137 C.3     1  UNL1        0.0285
     34 C         140.7282  142.3880  165.5604 C.3     1  UNL1        0.1293
@<TRIPOS>BOND
     1    33    34    1
     2    34     1    1
     3     1     2   ar
     4     2     3    2
     5     2     4   ar
     6     4    19    1
     7    19    20   ar
     8    20    21   ar
     9    21    26    1
    10    26    27    2
    11    26    28   am
    12    28    30    1
    13    30    31    1
    14    31    32    1
    15    21    22   ar
    16    22    23   ar
    17    23    24   ar
    18    24    25    1
    19     4     5   ar
    20     5     6   ar
    21     6     7   ar
    22     7     8   ar
    23     8     9   ar
    24     9    11    1
    25    11    12   ar
    26    12    13    1
    27    12    14   ar
    28    14    15   ar
    29    15    16   ar
    30    16    17   ar
    31    17    18    1
    32     9    10   ar
    33    10     1   ar
    34    24    19   ar
    35    10     6   ar
    36    32    30    1
    37    17    11   ar
    38    28    29    1
@<TRIPOS>MOLECULE
*****
 34 38 0 0 0
SMALL
GASTEIGER

@<TRIPOS>ATOM
      1 N         141.8311  139.0091  162.8982 N.ar    1  UNL1       -0.2299
      2 C         141.5818  138.4486  161.5293 C.ar    1  UNL1        0.2753
      3 O         140.3429  137.6463  161.2616 O.2     1  UNL1       -0.2656
      4 C         142.5712  138.6905  160.4283 C.ar    1  UNL1        0.0603
      5 C         143.8101  139.4928  160.6959 C.ar    1  UNL1        0.0454
      6 C         144.0594  140.0532  162.0648 C.ar    1  UNL1        0.1850
      7 N         145.1823  140.8762  162.6231 N.ar    1  UNL1       -0.1270
      8 N         144.8868  141.1429  164.0693 N.ar    1  UNL1       -0.1269
      9 C         143.5813  140.4849  164.4048 C.ar    1  UNL1        0.1878
     10 N         143.0699  139.8113  163.1659 N.ar    1  UNL1       -0.2084
     11 C         142.9058  140.4980  165.7440 C.ar    1  UNL1        0.0755
     12 C         143.1761  139.4014  166.7311 C.ar    1  UNL1        0.1439
     13 F         144.1219  138.2916  166.3790 F       1  UNL1       -0.2040
     14 C         142.5006  139.4145  168.0704 C.ar    1  UNL1        0.0298
     15 C         141.5549  140.5241  168.4225 C.ar    1  UNL1        0.0032
     16 C         141.2846  141.6208  167.4353 C.ar    1  UNL1        0.0116
     17 C         141.9600  141.6077  166.0961 C.ar    1  UNL1        0.0628
     18 CL        141.6897  142.7043  165.1090 Cl      1  UNL1       -0.0821
     19 C         142.3218  138.1300  159.0593 C.ar    1  UNL1        0.0009
     20 C         142.9585  136.8343  158.6520 C.ar    1  UNL1        0.0043
     21 C         142.7091  136.2739  157.2832 C.ar    1  UNL1        0.0533
     22 C         141.8232  137.0091  156.3217 C.ar    1  UNL1        0.0042
     23 C         141.1865  138.3048  156.7290 C.ar    1  UNL1       -0.0041
     24 C         141.4359  138.8653  158.0978 C.ar    1  UNL1       -0.0217
     25 C         140.7993  140.1610  158.5053 C.3     1  UNL1        0.0310
     26 C         143.3457  134.9782  156.8758 C.2     1  UNL1        0.2458
     27 O         143.5775  134.6803  155.4240 O.2     1  UNL1       -0.2701
     28 N         143.7506  133.9805  157.9202 N.am    1  UNL1       -0.3025
     29 H         143.5985  134.1761  158.8730 H       1  UNL1        0.1497
     30 C         144.3872  132.6848  157.5127 C.3     1  UNL1        0.0720
     31 C         144.9137  131.3268  157.8713 C.3     1  UNL1        0.0213
     32 C         144.9634  131.7988  156.4483 C.3     1  UNL1        0.0213
     33 C         140.8338  137.4549  164.7257 C.3     1  UNL1        0.0285
     34 C         140.8416  138.7672  163.9993 C.3     1  UNL1        0.1293
@<TRIPOS>BOND
     1    33    34    1
     2    34     1    1
     3     1     2   ar
     4     2     3    2
     5     2     4   ar
     6     4    19    1
     7    19    20   ar
     8    20    21   ar
     9    21    26    1
    10    26    27    2
    11    26    28   am
    12    28    30    1
    13    30    31    1
    14    31    32    1
    15    21    22   ar
    16    22    23   ar
    17    23    24   ar
    18    24    25    1
    19     4     5   ar
    20     5     6   ar
    21     6     7   ar
    22     7     8   ar
    23     8     9   ar
    24     9    11    1
    25    11    12   ar
    26    12    13    1
    27    12    14   ar
    28    14    15   ar
    29    15    16   ar
    30    16    17   ar
    31    17    18    1
    32     9    10   ar
    33    10     1   ar
    34    24    19   ar
    35    10     6   ar
    36    32    30    1
    37    17    11   ar
    38    28    29    1
@<TRIPOS>MOLECULE
*****
 34 38 0 0 0
SMALL
GASTEIGER

@<TRIPOS>ATOM
      1 N         141.7819  141.3910  165.0317 N.ar    1  UNL1       -0.2299
      2 C         142.0448  141.3781  163.5550 C.ar    1  UNL1        0.2753
      3 O         141.4412  142.4336  162.6765 O.2     1  UNL1       -0.2656
      4 C         142.9112  140.3098  162.9568 C.ar    1  UNL1        0.0603
      5 C         143.5149  139.2543  163.8353 C.ar    1  UNL1        0.0454
      6 C         143.2520  139.2672  165.3120 C.ar    1  UNL1        0.1850
      7 N         143.7068  138.3646  166.4203 N.ar    1  UNL1       -0.1270
      8 N         143.1214  138.8751  167.7035 N.ar    1  UNL1       -0.1269
      9 C         142.3048  140.0932  167.3883 C.ar    1  UNL1        0.1878
     10 N         142.3855  140.3356  165.9102 N.ar    1  UNL1       -0.2084
     11 C         141.5416  140.9233  168.3775 C.ar    1  UNL1        0.0755
     12 C         140.1292  140.5607  168.7292 C.ar    1  UNL1        0.1439
     13 F         139.4801  139.3680  168.0917 F       1  UNL1       -0.2040
     14 C         139.3659  141.3907  169.7184 C.ar    1  UNL1        0.0298
     15 C         140.0149  142.5832  170.3558 C.ar    1  UNL1        0.0032
     16 C         141.4274  142.9458  170.0041 C.ar    1  UNL1        0.0116
     17 C         142.1907  142.1159  169.0149 C.ar    1  UNL1        0.0628
     18 CL        143.6030  142.4785  168.6632 Cl      1  UNL1       -0.0821
     19 C         143.1742  140.2969  161.4800 C.ar    1  UNL1        0.0009
     20 C         142.5170  139.2666  160.6102 C.ar    1  UNL1        0.0043
     21 C         142.7799  139.2536  159.1335 C.ar    1  UNL1        0.0533
     22 C         143.6999  140.2711  158.5265 C.ar    1  UNL1        0.0042
     23 C         144.3571  141.3014  159.3964 C.ar    1  UNL1       -0.0041
     24 C         144.0942  141.3143  160.8731 C.ar    1  UNL1       -0.0217
     25 C         144.7513  142.3446  161.7430 C.3     1  UNL1        0.0310
     26 C         142.1227  138.2233  158.2637 C.2     1  UNL1        0.2458
     27 O         140.6268  138.1192  158.2239 O.2     1  UNL1       -0.2701
     28 N         142.9614  137.2971  157.4337 N.am    1  UNL1       -0.3025
     29 H         143.9431  137.3655  157.4598 H       1  UNL1        0.1497
     30 C         142.3041  136.2668  156.5639 C.3     1  UNL1        0.0720
     31 C         141.2942  135.9048  155.5155 C.3     1  UNL1        0.0213
     32 C         142.1757  134.8443  156.1059 C.3     1  UNL1        0.0213
     33 C         139.4219  142.3392  165.5618 C.3     1  UNL1        0.0285
     34 C         140.9155  142.4594  165.6299 C.3     1  UNL1        0.1293
@<TRIPOS>BOND
     1    33    34    1
     2    34     1    1
     3     1     2   ar
     4     2     3    2
     5     2     4   ar
     6     4    19    1
     7    19    20   ar
     8    20    21   ar
     9    21    26    1
    10    26    27    2
    11    26    28   am
    12    28    30    1
    13    30    31    1
    14    31    32    1
    15    21    22   ar
    16    22    23   ar
    17    23    24   ar
    18    24    25    1
    19     4     5   ar
    20     5     6   ar
    21     6     7   ar
    22     7     8   ar
    23     8     9   ar
    24     9    11    1
    25    11    12   ar
    26    12    13    1
    27    12    14   ar
    28    14    15   ar
    29    15    16   ar
    30    16    17   ar
    31    17    18    1
    32     9    10   ar
    33    10     1   ar
    34    24    19   ar
    35    10     6   ar
    36    32    30    1
    37    17    11   ar
    38    28    29    1
@<TRIPOS>MOLECULE
*****
 34 38 0 0 0
SMALL
GASTEIGER

@<TRIPOS>ATOM
      1 N         142.7268  140.2044  164.5041 N.ar    1  UNL1       -0.2299
      2 C         143.0151  139.8286  163.0809 C.ar    1  UNL1        0.2753
      3 O         144.0378  138.7744  162.7760 O.2     1  UNL1       -0.2656
      4 C         142.2809  140.5070  161.9626 C.ar    1  UNL1        0.0603
      5 C         141.2583  141.5612  162.2674 C.ar    1  UNL1        0.0454
      6 C         140.9699  141.9369  163.6907 C.ar    1  UNL1        0.1850
      7 N         140.0232  142.9318  164.2940 N.ar    1  UNL1       -0.1270
      8 N         140.1723  142.8682  165.7852 N.ar    1  UNL1       -0.1269
      9 C         141.2112  141.8341  166.1035 C.ar    1  UNL1        0.1878
     10 N         141.7042  141.2585  164.8090 N.ar    1  UNL1       -0.2084
     11 C         141.6756  141.4440  167.4754 C.ar    1  UNL1        0.0755
     12 C         142.9406  142.0263  168.0327 C.ar    1  UNL1        0.1439
     13 F         143.7413  142.9986  167.2181 F       1  UNL1       -0.2040
     14 C         143.4051  141.6363  169.4047 C.ar    1  UNL1        0.0298
     15 C         142.6045  140.6640  170.2193 C.ar    1  UNL1        0.0032
     16 C         141.3394  140.0818  169.6620 C.ar    1  UNL1        0.0116
     17 C         140.8749  140.4717  168.2901 C.ar    1  UNL1        0.0628
     18 CL        139.6099  139.8895  167.7328 Cl      1  UNL1       -0.0821
     19 C         142.5693  140.1312  160.5393 C.ar    1  UNL1        0.0009
     20 C         143.6413  140.8511  159.7759 C.ar    1  UNL1        0.0043
     21 C         143.9297  140.4753  158.3527 C.ar    1  UNL1        0.0533
     22 C         143.1461  139.3797  157.6928 C.ar    1  UNL1        0.0042
     23 C         142.0741  138.6597  158.4561 C.ar    1  UNL1       -0.0041
     24 C         141.7857  139.0355  159.8793 C.ar    1  UNL1       -0.0217
     25 C         140.7138  138.3156  160.6428 C.3     1  UNL1        0.0310
     26 C         145.0016  141.1952  157.5894 C.2     1  UNL1        0.2458
     27 O         145.4103  142.5801  157.9958 O.2     1  UNL1       -0.2701
     28 N         145.6648  140.5303  156.4197 N.am    1  UNL1       -0.3025
     29 H         145.3965  139.6214  156.1530 H       1  UNL1        0.1497
     30 C         146.7367  141.2503  155.6565 C.3     1  UNL1        0.0720
     31 C         147.2485  141.8344  154.3731 C.3     1  UNL1        0.0213
     32 C         148.0817  141.9133  155.6179 C.3     1  UNL1        0.0213
     33 C         142.9999  138.1880  166.1195 C.3     1  UNL1        0.0285
     34 C         143.4610  139.5260  165.6224 C.3     1  UNL1        0.1293
@<TRIPOS>BOND
     1    33    34    1
     2    34     1    1
     3     1     2   ar
     4     2     3    2
     5     2     4   ar
     6     4    19    1
     7    19    20   ar
     8    20    21   ar
     9    21    26    1
    10    26    27    2
    11    26    28   am
    12    28    30    1
    13    30    31    1
    14    31    32    1
    15    21    22   ar
    16    22    23   ar
    17    23    24   ar
    18    24    25    1
    19     4     5   ar
    20     5     6   ar
    21     6     7   ar
    22     7     8   ar
    23     8     9   ar
    24     9    11    1
    25    11    12   ar
    26    12    13    1
    27    12    14   ar
    28    14    15   ar
    29    15    16   ar
    30    16    17   ar
    31    17    18    1
    32     9    10   ar
    33    10     1   ar
    34    24    19   ar
    35    10     6   ar
    36    32    30    1
    37    17    11   ar
    38    28    29    1
@<TRIPOS>MOLECULE
*****
 34 38 0 0 0
SMALL
GASTEIGER

@<TRIPOS>ATOM
      1 N         141.5283  139.0954  161.1929 N.ar    1  UNL1       -0.2299
      2 C         142.3611  138.5895  160.0526 C.ar    1  UNL1        0.2753
      3 O         143.8169  138.2935  160.2606 O.2     1  UNL1       -0.2656
      4 C         141.7383  138.3796  158.7043 C.ar    1  UNL1        0.0603
      5 C         140.2826  138.6756  158.4963 C.ar    1  UNL1        0.0454
      6 C         139.4497  139.1815  159.6366 C.ar    1  UNL1        0.1850
      7 N         138.0006  139.5569  159.7319 N.ar    1  UNL1       -0.1270
      8 N         137.7279  139.9989  161.1391 N.ar    1  UNL1       -0.1269
      9 C         139.0084  139.8966  161.9136 C.ar    1  UNL1        0.1878
     10 N         140.0726  139.3914  160.9850 N.ar    1  UNL1       -0.2084
     11 C         139.1924  140.2393  163.3622 C.ar    1  UNL1        0.0755
     12 C         139.4357  141.6617  163.7714 C.ar    1  UNL1        0.1439
     13 F         139.4950  142.7415  162.7318 F       1  UNL1       -0.2040
     14 C         139.6198  142.0045  165.2201 C.ar    1  UNL1        0.0298
     15 C         139.5605  140.9248  166.2596 C.ar    1  UNL1        0.0032
     16 C         139.3172  139.5023  165.8504 C.ar    1  UNL1        0.0116
     17 C         139.1332  139.1595  164.4018 C.ar    1  UNL1        0.0628
     18 CL        138.8899  137.7370  163.9927 Cl      1  UNL1       -0.0821
     19 C         142.5712  137.8737  157.5639 C.ar    1  UNL1        0.0009
     20 C         142.7262  136.3978  157.3453 C.ar    1  UNL1        0.0043
     21 C         143.5591  135.8919  156.2049 C.ar    1  UNL1        0.0533
     22 C         144.2369  136.8619  155.2832 C.ar    1  UNL1        0.0042
     23 C         144.0820  138.3378  155.5018 C.ar    1  UNL1       -0.0041
     24 C         143.2491  138.8437  156.6422 C.ar    1  UNL1       -0.0217
     25 C         143.0941  140.3196  156.8608 C.3     1  UNL1        0.0310
     26 C         143.7140  134.4160  155.9863 C.2     1  UNL1        0.2458
     27 O         143.1007  133.7681  154.7805 O.2     1  UNL1       -0.2701
     28 N         144.4823  133.5882  156.9735 N.am    1  UNL1       -0.3025
     29 H         144.8848  134.0135  157.7649 H       1  UNL1        0.1497
     30 C         144.6372  132.1123  156.7548 C.3     1  UNL1        0.0720
     31 C         144.9537  130.9595  155.8488 C.3     1  UNL1        0.0213
     32 C         144.5889  130.7089  157.2821 C.3     1  UNL1        0.0213
     33 C         142.8756  140.5839  162.8419 C.3     1  UNL1        0.0285
     34 C         142.1512  139.3053  162.5413 C.3     1  UNL1        0.1293
@<TRIPOS>BOND
     1    33    34    1
     2    34     1    1
     3     1     2   ar
     4     2     3    2
     5     2     4   ar
     6     4    19    1
     7    19    20   ar
     8    20    21   ar
     9    21    26    1
    10    26    27    2
    11    26    28   am
    12    28    30    1
    13    30    31    1
    14    31    32    1
    15    21    22   ar
    16    22    23   ar
    17    23    24   ar
    18    24    25    1
    19     4     5   ar
    20     5     6   ar
    21     6     7   ar
    22     7     8   ar
    23     8     9   ar
    24     9    11    1
    25    11    12   ar
    26    12    13    1
    27    12    14   ar
    28    14    15   ar
    29    15    16   ar
    30    16    17   ar
    31    17    18    1
    32     9    10   ar
    33    10     1   ar
    34    24    19   ar
    35    10     6   ar
    36    32    30    1
    37    17    11   ar
    38    28    29    1
@<TRIPOS>MOLECULE
*****
 34 38 0 0 0
SMALL
GASTEIGER

@<TRIPOS>ATOM
      1 N         139.5774  142.1405  163.6489 N.ar    1  UNL1       -0.2299
      2 C         139.1988  142.6260  162.2811 C.ar    1  UNL1        0.2753
      3 O         138.1145  143.6503  162.1223 O.2     1  UNL1       -0.2656
      4 C         139.9045  142.0872  161.0721 C.ar    1  UNL1        0.0603
      5 C         140.9888  141.0629  161.2309 C.ar    1  UNL1        0.0454
      6 C         141.3674  140.5775  162.5987 C.ar    1  UNL1        0.1850
      7 N         142.3887  139.5820  163.0634 N.ar    1  UNL1       -0.1270
      8 N         142.3142  139.5056  164.5596 N.ar    1  UNL1       -0.1269
      9 C         141.2469  140.4538  165.0196 C.ar    1  UNL1        0.1878
     10 N         140.6617  141.1163  163.8077 N.ar    1  UNL1       -0.2084
     11 C         140.8367  140.6968  166.4418 C.ar    1  UNL1        0.0755
     12 C         139.7005  139.9199  167.0379 C.ar    1  UNL1        0.1439
     13 F         138.9744  138.8999  166.2118 F       1  UNL1       -0.2040
     14 C         139.2903  140.1629  168.4602 C.ar    1  UNL1        0.0298
     15 C         140.0164  141.1828  169.2863 C.ar    1  UNL1        0.0032
     16 C         141.1526  141.9598  168.6901 C.ar    1  UNL1        0.0116
     17 C         141.5628  141.7168  167.2680 C.ar    1  UNL1        0.0628
     18 CL        142.6990  142.4938  166.6719 Cl      1  UNL1       -0.0821
     19 C         139.5259  142.5727  159.7042 C.ar    1  UNL1        0.0009
     20 C         138.4335  141.8851  158.9400 C.ar    1  UNL1        0.0043
     21 C         138.0549  142.3705  157.5722 C.ar    1  UNL1        0.0533
     22 C         138.7687  143.5436  156.9685 C.ar    1  UNL1        0.0042
     23 C         139.8610  144.2312  157.7327 C.ar    1  UNL1       -0.0041
     24 C         140.2396  143.7458  159.1005 C.ar    1  UNL1       -0.0217
     25 C         141.3320  144.4333  159.8648 C.3     1  UNL1        0.0310
     26 C         136.9625  141.6829  156.8081 C.2     1  UNL1        0.2458
     27 O         136.6389  140.2459  157.0917 O.2     1  UNL1       -0.2701
     28 N         136.1939  142.4322  155.7603 N.am    1  UNL1       -0.3025
     29 H         136.4064  143.3753  155.5742 H       1  UNL1        0.1497
     30 C         135.1015  141.7445  154.9962 C.3     1  UNL1        0.0720
     31 C         134.4424  141.4075  153.6916 C.3     1  UNL1        0.0213
     32 C         133.8686  140.8904  154.9775 C.3     1  UNL1        0.0213
     33 C         139.2868  143.9962  165.4439 C.3     1  UNL1        0.0285
     34 C         138.8717  142.6793  164.8579 C.3     1  UNL1        0.1293
@<TRIPOS>BOND
     1    33    34    1
     2    34     1    1
     3     1     2   ar
     4     2     3    2
     5     2     4   ar
     6     4    19    1
     7    19    20   ar
     8    20    21   ar
     9    21    26    1
    10    26    27    2
    11    26    28   am
    12    28    30    1
    13    30    31    1
    14    31    32    1
    15    21    22   ar
    16    22    23   ar
    17    23    24   ar
    18    24    25    1
    19     4     5   ar
    20     5     6   ar
    21     6     7   ar
    22     7     8   ar
    23     8     9   ar
    24     9    11    1
    25    11    12   ar
    26    12    13    1
    27    12    14   ar
    28    14    15   ar
    29    15    16   ar
    30    16    17   ar
    31    17    18    1
    32     9    10   ar
    33    10     1   ar
    34    24    19   ar
    35    10     6   ar
    36    32    30    1
    37    17    11   ar
    38    28    29    1
@<TRIPOS>MOLECULE
*****
 34 38 0 0 0
SMALL
GASTEIGER

@<TRIPOS>ATOM
      1 N         140.2375  141.0103  163.2466 N.ar    1  UNL1       -0.2299
      2 C         140.0608  141.5589  161.8617 C.ar    1  UNL1        0.2753
      3 O         139.8338  143.0279  161.6604 O.2     1  UNL1       -0.2656
      4 C         140.1111  140.6386  160.6784 C.ar    1  UNL1        0.0603
      5 C         140.3381  139.1696  160.8798 C.ar    1  UNL1        0.0454
      6 C         140.5148  138.6210  162.2646 C.ar    1  UNL1        0.1850
      7 N         140.7521  137.2287  162.7699 N.ar    1  UNL1       -0.1270
      8 N         140.8484  137.2886  164.2656 N.ar    1  UNL1       -0.1269
      9 C         140.6707  138.7179  164.6847 C.ar    1  UNL1        0.1878
     10 N         140.4645  139.5413  163.4480 N.ar    1  UNL1       -0.2084
     11 C         140.6949  139.2332  166.0932 C.ar    1  UNL1        0.0755
     12 C         142.0059  139.4787  166.7795 C.ar    1  UNL1        0.1439
     13 F         143.2926  139.2090  166.0573 F       1  UNL1       -0.2040
     14 C         142.0301  139.9941  168.1881 C.ar    1  UNL1        0.0298
     15 C         140.7434  140.2638  168.9102 C.ar    1  UNL1        0.0032
     16 C         139.4324  140.0182  168.2238 C.ar    1  UNL1        0.0116
     17 C         139.4081  139.5029  166.8154 C.ar    1  UNL1        0.0628
     18 CL        138.0972  139.2573  166.1291 Cl      1  UNL1       -0.0821
     19 C         139.9343  141.1873  159.2935 C.ar    1  UNL1        0.0009
     20 C         138.5754  141.1972  158.6585 C.ar    1  UNL1        0.0043
     21 C         138.3987  141.7458  157.2737 C.ar    1  UNL1        0.0533
     22 C         139.5809  142.2845  156.5238 C.ar    1  UNL1        0.0042
     23 C         140.9398  142.2745  157.1588 C.ar    1  UNL1       -0.0041
     24 C         141.1165  141.7259  158.5437 C.ar    1  UNL1       -0.0217
     25 C         142.4755  141.7159  159.1787 C.3     1  UNL1        0.0310
     26 C         137.0397  141.7558  156.6387 C.2     1  UNL1        0.2458
     27 O         136.5793  142.9597  155.8714 O.2     1  UNL1       -0.2701
     28 N         136.1413  140.5620  156.7710 N.am    1  UNL1       -0.3025
     29 H         136.4435  139.7719  157.2746 H       1  UNL1        0.1497
     30 C         134.7823  140.5721  156.1360 C.3     1  UNL1        0.0720
     31 C         133.3012  140.3559  156.2336 C.3     1  UNL1        0.0213
     32 C         133.9098  140.8057  154.9384 C.3     1  UNL1        0.0213
     33 C         141.4247  142.6553  164.8696 C.3     1  UNL1        0.0285
     34 C         140.1872  141.9307  164.4300 C.3     1  UNL1        0.1293
@<TRIPOS>BOND
     1    33    34    1
     2    34     1    1
     3     1     2   ar
     4     2     3    2
     5     2     4   ar
     6     4    19    1
     7    19    20   ar
     8    20    21   ar
     9    21    26    1
    10    26    27    2
    11    26    28   am
    12    28    30    1
    13    30    31    1
    14    31    32    1
    15    21    22   ar
    16    22    23   ar
    17    23    24   ar
    18    24    25    1
    19     4     5   ar
    20     5     6   ar
    21     6     7   ar
    22     7     8   ar
    23     8     9   ar
    24     9    11    1
    25    11    12   ar
    26    12    13    1
    27    12    14   ar
    28    14    15   ar
    29    15    16   ar
    30    16    17   ar
    31    17    18    1
    32     9    10   ar
    33    10     1   ar
    34    24    19   ar
    35    10     6   ar
    36    32    30    1
    37    17    11   ar
    38    28    29    1
@<TRIPOS>MOLECULE
*****
 34 38 0 0 0
SMALL
GASTEIGER

@<TRIPOS>ATOM
      1 N         141.7565  139.7009  162.8433 N.ar    1  UNL1       -0.2299
      2 C         141.4354  139.3671  161.4166 C.ar    1  UNL1        0.2753
      3 O         140.0859  138.8174  161.0605 O.2     1  UNL1       -0.2656
      4 C         142.4636  139.5829  160.3461 C.ar    1  UNL1        0.0603
      5 C         143.8131  140.1326  160.7023 C.ar    1  UNL1        0.0454
      6 C         144.1342  140.4665  162.1289 C.ar    1  UNL1        0.1850
      7 N         145.3693  141.0183  162.7770 N.ar    1  UNL1       -0.1270
      8 N         145.1043  141.1435  164.2481 N.ar    1  UNL1       -0.1269
      9 C         143.7055  140.6691  164.5092 C.ar    1  UNL1        0.1878
     10 N         143.1059  140.2506  163.1994 N.ar    1  UNL1       -0.2084
     11 C         143.0256  140.6214  165.8454 C.ar    1  UNL1        0.0755
     12 C         142.2294  141.7991  166.3241 C.ar    1  UNL1        0.1439
     13 F         142.1130  143.0243  165.4666 F       1  UNL1       -0.2040
     14 C         141.5494  141.7515  167.6604 C.ar    1  UNL1        0.0298
     15 C         141.6658  140.5263  168.5178 C.ar    1  UNL1        0.0032
     16 C         142.4621  139.3486  168.0390 C.ar    1  UNL1        0.0116
     17 C         143.1420  139.3962  166.7029 C.ar    1  UNL1        0.0628
     18 CL        143.9382  138.2186  166.2242 Cl      1  UNL1       -0.0821
     19 C         142.1425  139.2490  158.9194 C.ar    1  UNL1        0.0009
     20 C         142.4202  137.8732  158.3903 C.ar    1  UNL1        0.0043
     21 C         142.0991  137.5393  156.9636 C.ar    1  UNL1        0.0533
     22 C         141.5002  138.5813  156.0661 C.ar    1  UNL1        0.0042
     23 C         141.2225  139.9572  156.5952 C.ar    1  UNL1       -0.0041
     24 C         141.5436  140.2910  158.0218 C.ar    1  UNL1       -0.0217
     25 C         141.2659  141.6669  158.5510 C.3     1  UNL1        0.0310
     26 C         142.3768  136.1635  156.4345 C.2     1  UNL1        0.2458
     27 O         143.7613  135.5925  156.5200 O.2     1  UNL1       -0.2701
     28 N         141.2702  135.3588  155.8199 N.am    1  UNL1       -0.3025
     29 H         140.3616  135.7335  155.7638 H       1  UNL1        0.1497
     30 C         141.5480  133.9829  155.2909 C.3     1  UNL1        0.0720
     31 C         142.3626  133.0612  154.4324 C.3     1  UNL1        0.0213
     32 C         141.2146  132.5216  155.2330 C.3     1  UNL1        0.0213
     33 C         140.5274  138.1174  164.4961 C.3     1  UNL1        0.0285
     34 C         140.7282  139.4851  163.9138 C.3     1  UNL1        0.1293
@<TRIPOS>BOND
     1    33    34    1
     2    34     1    1
     3     1     2   ar
     4     2     3    2
     5     2     4   ar
     6     4    19    1
     7    19    20   ar
     8    20    21   ar
     9    21    26    1
    10    26    27    2
    11    26    28   am
    12    28    30    1
    13    30    31    1
    14    31    32    1
    15    21    22   ar
    16    22    23   ar
    17    23    24   ar
    18    24    25    1
    19     4     5   ar
    20     5     6   ar
    21     6     7   ar
    22     7     8   ar
    23     8     9   ar
    24     9    11    1
    25    11    12   ar
    26    12    13    1
    27    12    14   ar
    28    14    15   ar
    29    15    16   ar
    30    16    17   ar
    31    17    18    1
    32     9    10   ar
    33    10     1   ar
    34    24    19   ar
    35    10     6   ar
    36    32    30    1
    37    17    11   ar
    38    28    29    1
