@<TRIPOS>MOLECULE
*****
 30 33 0 0 0
SMALL
GASTEIGER

@<TRIPOS>ATOM
      1 C         142.4835  141.9585  166.7140 C.3     1  UNL1        0.0036
      2 C         141.4976  141.2986  167.6319 C.3     1  UNL1        0.0386
      3 C         142.5315  142.1239  168.3388 C.3     1  UNL1        0.0091
      4 C         142.5125  142.2292  169.8349 C.3     1  UNL1        0.0667
      5 C         141.4596  141.5092  170.6242 C.3     1  UNL1        0.2639
      6 F         140.6707  141.0164  171.8009 F       1  UNL1       -0.2043
      7 F         142.2196  142.1634  171.7397 F       1  UNL1       -0.2043
      8 C         140.4257  140.6838  169.9173 C.3     1  UNL1        0.0667
      9 C         140.4447  140.5785  168.4212 C.3     1  UNL1        0.0103
     10 C         139.5620  139.8450  167.4553 C.3     1  UNL1        0.0199
     11 C         140.0694  140.1116  166.0692 C.3     1  UNL1        0.0978
     12 C         141.2656  141.0100  166.1783 C.3     1  UNL1        0.1801
     13 N         139.4834  139.5743  164.7972 N.3     1  UNL1       -0.2697
     14 C         139.8213  138.1849  164.3440 C.3     1  UNL1        0.0722
     15 C         139.2353  137.6476  163.0720 C.3     1  UNL1        0.0187
     16 C         138.3113  138.4996  162.2533 C.3     1  UNL1        0.0183
     17 C         137.9734  139.8889  162.7066 C.3     1  UNL1        0.0670
     18 N         137.0494  140.7410  161.8878 N.3     1  UNL1       -0.3211
     19 C         138.5594  140.4263  163.9785 C.3     1  UNL1        0.0878
     20 H         136.9317  141.6473  162.3408 H       1  UNL1        0.1189
     21 H         136.1428  140.2803  161.8086 H       1  UNL1        0.1189
     22 O         142.0859  141.5288  165.0346 O.3     1  UNL1       -0.4778
     23 C         142.2731  140.6905  163.8050 C.ar    1  UNL1        0.1385
     24 C         143.0642  139.4182  163.8778 C.ar    1  UNL1        0.0376
     25 C         143.2514  138.5799  162.6481 C.ar    1  UNL1        0.0134
     26 C         142.6476  139.0140  161.3454 C.ar    1  UNL1        0.0686
     27 C         141.8565  140.2863  161.2725 C.ar    1  UNL1        0.0134
     28 C         141.6693  141.1246  162.5022 C.ar    1  UNL1        0.0376
     29 C         142.8348  138.1757  160.1157 C.1     1  UNL1        0.1004
     30 N         143.0220  137.3375  158.8859 N.1     1  UNL1       -0.1908
@<TRIPOS>BOND
     1     2     1    1
     2     2     3    1
     3     3     4    1
     4     4     5    1
     5     5     6    1
     6     5     7    1
     7     5     8    1
     8     9     8    1
     9     9    10    1
    10    10    11    1
    11    11    13    1
    12    13    14    1
    13    14    15    1
    14    15    16    1
    15    16    17    1
    16    17    18    1
    17    17    19    1
    18    11    12    1
    19    12    22    1
    20    22    23    1
    21    23    24   ar
    22    24    25   ar
    23    25    26   ar
    24    26    29    1
    25    29    30    3
    26    26    27   ar
    27    27    28   ar
    28     9     2    1
    29    19    13    1
    30    28    23   ar
    31    12     2    1
    32    18    20    1
    33    18    21    1
@<TRIPOS>MOLECULE
*****
 30 33 0 0 0
SMALL
GASTEIGER

@<TRIPOS>ATOM
      1 C         140.3317  138.9030  163.4502 C.3     1  UNL1        0.0036
      2 C         139.7465  139.4494  164.7187 C.3     1  UNL1        0.0386
      3 C         139.3575  138.0300  164.4292 C.3     1  UNL1        0.0091
      4 C         138.4583  137.2910  165.3753 C.3     1  UNL1        0.0667
      5 C         137.9480  137.9715  166.6109 C.3     1  UNL1        0.2639
      6 F         137.2141  138.1846  167.9016 F       1  UNL1       -0.2043
      7 F         137.3041  136.6260  166.7697 F       1  UNL1       -0.2043
      8 C         138.3370  139.3909  166.9004 C.3     1  UNL1        0.0667
      9 C         139.2363  140.1299  165.9543 C.3     1  UNL1        0.0103
     10 C         139.7860  141.5254  165.9755 C.3     1  UNL1        0.0199
     11 C         140.6360  141.7074  164.7531 C.3     1  UNL1        0.0978
     12 C         140.6116  140.4244  163.9763 C.3     1  UNL1        0.1801
     13 N         141.3798  142.9536  164.3739 N.3     1  UNL1       -0.2697
     14 C         142.8349  143.0906  164.7116 C.3     1  UNL1        0.0722
     15 C         143.5787  144.3368  164.3325 C.3     1  UNL1        0.0187
     16 C         142.8675  145.4460  163.6157 C.3     1  UNL1        0.0183
     17 C         141.4124  145.3090  163.2780 C.3     1  UNL1        0.0670
     18 N         140.7011  146.4182  162.5612 N.3     1  UNL1       -0.3211
     19 C         140.6686  144.0628  163.6571 C.3     1  UNL1        0.0878
     20 H         139.7260  146.1576  162.4140 H       1  UNL1        0.1189
     21 H         141.1489  146.5825  161.6596 H       1  UNL1        0.1189
     22 O         141.3267  140.1623  162.6841 O.3     1  UNL1       -0.4778
     23 C         141.5190  141.2731  161.6946 C.ar    1  UNL1        0.1385
     24 C         142.8916  141.8222  161.4407 C.ar    1  UNL1        0.0376
     25 C         143.0838  142.9330  160.4512 C.ar    1  UNL1        0.0134
     26 C         141.9035  143.4947  159.7155 C.ar    1  UNL1        0.0686
     27 C         140.5308  142.9457  159.9693 C.ar    1  UNL1        0.0134
     28 C         140.3386  141.8349  160.9589 C.ar    1  UNL1        0.0376
     29 C         142.0957  144.6055  158.7260 C.1     1  UNL1        0.1004
     30 N         142.2879  145.7163  157.7365 N.1     1  UNL1       -0.1908
@<TRIPOS>BOND
     1     2     1    1
     2     2     3    1
     3     3     4    1
     4     4     5    1
     5     5     6    1
     6     5     7    1
     7     5     8    1
     8     9     8    1
     9     9    10    1
    10    10    11    1
    11    11    13    1
    12    13    14    1
    13    14    15    1
    14    15    16    1
    15    16    17    1
    16    17    18    1
    17    17    19    1
    18    11    12    1
    19    12    22    1
    20    22    23    1
    21    23    24   ar
    22    24    25   ar
    23    25    26   ar
    24    26    29    1
    25    29    30    3
    26    26    27   ar
    27    27    28   ar
    28     9     2    1
    29    19    13    1
    30    28    23   ar
    31    12     2    1
    32    18    20    1
    33    18    21    1
@<TRIPOS>MOLECULE
*****
 30 33 0 0 0
SMALL
GASTEIGER

@<TRIPOS>ATOM
      1 C         140.7945  142.7696  166.1705 C.3     1  UNL1        0.0036
      2 C         140.2394  141.6169  166.9536 C.3     1  UNL1        0.0386
      3 C         140.6113  142.8025  167.7938 C.3     1  UNL1        0.0091
      4 C         140.4144  142.7598  169.2801 C.3     1  UNL1        0.0667
      5 C         139.8456  141.5314  169.9264 C.3     1  UNL1        0.2639
      6 F         139.3458  140.6029  170.9931 F       1  UNL1       -0.2043
      7 F         140.0439  142.3946  171.1370 F       1  UNL1       -0.2043
      8 C         139.4738  140.3458  169.0862 C.3     1  UNL1        0.0667
      9 C         139.6707  140.3885  167.5998 C.3     1  UNL1        0.0103
     10 C         139.3988  139.3813  166.5220 C.3     1  UNL1        0.0199
     11 C         139.7996  139.9872  165.2096 C.3     1  UNL1        0.0978
     12 C         140.3191  141.3688  165.4764 C.3     1  UNL1        0.1801
     13 N         139.6986  139.3273  163.8664 N.3     1  UNL1       -0.2697
     14 C         138.3909  139.3184  163.1316 C.3     1  UNL1        0.0722
     15 C         138.2899  138.6585  161.7884 C.3     1  UNL1        0.0187
     16 C         139.4965  138.0075  161.1799 C.3     1  UNL1        0.0183
     17 C         140.8041  138.0165  161.9147 C.3     1  UNL1        0.0670
     18 N         142.0109  137.3655  161.3062 N.3     1  UNL1       -0.3211
     19 C         140.9052  138.6764  163.2579 C.3     1  UNL1        0.0878
     20 H         142.8058  137.4655  161.9374 H       1  UNL1        0.1189
     21 H         142.2258  137.8132  160.4152 H       1  UNL1        0.1189
     22 O         140.8288  142.3332  164.4467 O.3     1  UNL1       -0.4778
     23 C         140.2108  142.3677  163.0805 C.ar    1  UNL1        0.1385
     24 C         141.0252  141.9892  161.8790 C.ar    1  UNL1        0.0376
     25 C         140.4071  142.0237  160.5128 C.ar    1  UNL1        0.0134
     26 C         138.9746  142.4367  160.3478 C.ar    1  UNL1        0.0686
     27 C         138.1601  142.8153  161.5492 C.ar    1  UNL1        0.0134
     28 C         138.7782  142.7807  162.9155 C.ar    1  UNL1        0.0376
     29 C         138.3565  142.4712  158.9815 C.1     1  UNL1        0.1004
     30 N         137.7384  142.5057  157.6152 N.1     1  UNL1       -0.1908
@<TRIPOS>BOND
     1     2     1    1
     2     2     3    1
     3     3     4    1
     4     4     5    1
     5     5     6    1
     6     5     7    1
     7     5     8    1
     8     9     8    1
     9     9    10    1
    10    10    11    1
    11    11    13    1
    12    13    14    1
    13    14    15    1
    14    15    16    1
    15    16    17    1
    16    17    18    1
    17    17    19    1
    18    11    12    1
    19    12    22    1
    20    22    23    1
    21    23    24   ar
    22    24    25   ar
    23    25    26   ar
    24    26    29    1
    25    29    30    3
    26    26    27   ar
    27    27    28   ar
    28     9     2    1
    29    19    13    1
    30    28    23   ar
    31    12     2    1
    32    18    20    1
    33    18    21    1
@<TRIPOS>MOLECULE
*****
 30 33 0 0 0
SMALL
GASTEIGER

@<TRIPOS>ATOM
      1 C         139.0931  139.6289  167.4991 C.3     1  UNL1        0.0036
      2 C         140.4014  140.2999  167.7960 C.3     1  UNL1        0.0386
      3 C         139.4511  140.2754  168.9563 C.3     1  UNL1        0.0091
      4 C         139.8497  140.8898  170.2653 C.3     1  UNL1        0.0667
      5 C         141.1987  141.5287  170.4140 C.3     1  UNL1        0.2639
      6 F         142.3573  142.2456  171.0415 F       1  UNL1       -0.2043
      7 F         140.6507  141.7532  171.7922 F       1  UNL1       -0.2043
      8 C         142.1490  141.5532  169.2538 C.3     1  UNL1        0.0667
      9 C         141.7504  140.9388  167.9448 C.3     1  UNL1        0.0103
     10 C         142.4701  140.8123  166.6348 C.3     1  UNL1        0.0199
     11 C         141.5660  140.0952  165.6765 C.3     1  UNL1        0.0978
     12 C         140.2875  139.7785  166.3942 C.3     1  UNL1        0.1801
     13 N         141.8846  139.7546  164.2508 N.3     1  UNL1       -0.2697
     14 C         142.3913  138.3867  163.9017 C.3     1  UNL1        0.0722
     15 C         142.7098  138.0461  162.4760 C.3     1  UNL1        0.0187
     16 C         142.5216  139.0734  161.3995 C.3     1  UNL1        0.0183
     17 C         142.0148  140.4414  161.7485 C.3     1  UNL1        0.0670
     18 N         141.8266  141.4688  160.6719 N.3     1  UNL1       -0.3211
     19 C         141.6963  140.7820  163.1742 C.3     1  UNL1        0.0878
     20 H         141.4784  142.3341  161.0848 H       1  UNL1        0.1189
     21 H         141.1539  141.1242  159.9870 H       1  UNL1        0.1189
     22 O         139.1030  139.0656  165.8122 O.3     1  UNL1       -0.4778
     23 C         138.7299  139.2804  164.3753 C.ar    1  UNL1        0.1385
     24 C         138.2077  140.6132  163.9271 C.ar    1  UNL1        0.0376
     25 C         137.8346  140.8278  162.4902 C.ar    1  UNL1        0.0134
     26 C         137.9837  139.7098  161.5015 C.ar    1  UNL1        0.0686
     27 C         138.5059  138.3769  161.9496 C.ar    1  UNL1        0.0134
     28 C         138.8790  138.1622  163.3865 C.ar    1  UNL1        0.0376
     29 C         137.6107  139.9244  160.0646 C.1     1  UNL1        0.1004
     30 N         137.2376  140.1391  158.6276 N.1     1  UNL1       -0.1908
@<TRIPOS>BOND
     1     2     1    1
     2     2     3    1
     3     3     4    1
     4     4     5    1
     5     5     6    1
     6     5     7    1
     7     5     8    1
     8     9     8    1
     9     9    10    1
    10    10    11    1
    11    11    13    1
    12    13    14    1
    13    14    15    1
    14    15    16    1
    15    16    17    1
    16    17    18    1
    17    17    19    1
    18    11    12    1
    19    12    22    1
    20    22    23    1
    21    23    24   ar
    22    24    25   ar
    23    25    26   ar
    24    26    29    1
    25    29    30    3
    26    26    27   ar
    27    27    28   ar
    28     9     2    1
    29    19    13    1
    30    28    23   ar
    31    12     2    1
    32    18    20    1
    33    18    21    1
@<TRIPOS>MOLECULE
*****
 30 33 0 0 0
SMALL
GASTEIGER

@<TRIPOS>ATOM
      1 C         142.0411  139.7850  166.1752 C.3     1  UNL1        0.0036
      2 C         141.6563  140.7236  167.2802 C.3     1  UNL1        0.0386
      3 C         142.4645  139.5447  167.7349 C.3     1  UNL1        0.0091
      4 C         142.8155  139.3904  169.1850 C.3     1  UNL1        0.0667
      5 C         142.3583  140.4152  170.1804 C.3     1  UNL1        0.2639
      6 F         142.1576  141.1148  171.4920 F       1  UNL1       -0.2043
      7 F         143.0968  139.4791  171.0907 F       1  UNL1       -0.2043
      8 C         141.5501  141.5941  169.7257 C.3     1  UNL1        0.0667
      9 C         141.1991  141.7484  168.2756 C.3     1  UNL1        0.0103
     10 C         140.4214  142.7971  167.5372 C.3     1  UNL1        0.0199
     11 C         140.3978  142.4206  166.0854 C.3     1  UNL1        0.0978
     12 C         141.1611  141.1391  165.9266 C.3     1  UNL1        0.1801
     13 N         139.7286  143.1903  164.9856 N.3     1  UNL1       -0.2697
     14 C         138.3452  142.8162  164.5426 C.3     1  UNL1        0.0722
     15 C         137.6760  143.5859  163.4428 C.3     1  UNL1        0.0187
     16 C         138.3901  144.7298  162.7860 C.3     1  UNL1        0.0183
     17 C         139.7734  145.1040  163.2290 C.3     1  UNL1        0.0670
     18 N         140.4876  146.2480  162.5722 N.3     1  UNL1       -0.3211
     19 C         140.4427  144.3342  164.3288 C.3     1  UNL1        0.0878
     20 H         141.4092  146.3608  162.9944 H       1  UNL1        0.1189
     21 H         139.9479  147.1041  162.6999 H       1  UNL1        0.1189
     22 O         141.3891  140.4024  164.6400 O.3     1  UNL1       -0.4778
     23 C         141.6875  141.1636  163.3825 C.ar    1  UNL1        0.1385
     24 C         142.9783  141.9159  163.2496 C.ar    1  UNL1        0.0376
     25 C         143.2767  142.6772  161.9920 C.ar    1  UNL1        0.0134
     26 C         142.2842  142.6861  160.8673 C.ar    1  UNL1        0.0686
     27 C         140.9933  141.9338  161.0002 C.ar    1  UNL1        0.0134
     28 C         140.6950  141.1725  162.2578 C.ar    1  UNL1        0.0376
     29 C         142.5825  143.4473  159.6098 C.1     1  UNL1        0.1004
     30 N         142.8808  144.2086  158.3522 N.1     1  UNL1       -0.1908
@<TRIPOS>BOND
     1     2     1    1
     2     2     3    1
     3     3     4    1
     4     4     5    1
     5     5     6    1
     6     5     7    1
     7     5     8    1
     8     9     8    1
     9     9    10    1
    10    10    11    1
    11    11    13    1
    12    13    14    1
    13    14    15    1
    14    15    16    1
    15    16    17    1
    16    17    18    1
    17    17    19    1
    18    11    12    1
    19    12    22    1
    20    22    23    1
    21    23    24   ar
    22    24    25   ar
    23    25    26   ar
    24    26    29    1
    25    29    30    3
    26    26    27   ar
    27    27    28   ar
    28     9     2    1
    29    19    13    1
    30    28    23   ar
    31    12     2    1
    32    18    20    1
    33    18    21    1
@<TRIPOS>MOLECULE
*****
 30 33 0 0 0
SMALL
GASTEIGER

@<TRIPOS>ATOM
      1 C         142.6099  141.2877  166.8219 C.3     1  UNL1        0.0036
      2 C         141.4409  140.7894  167.6189 C.3     1  UNL1        0.0386
      3 C         142.6287  141.1714  168.4516 C.3     1  UNL1        0.0091
      4 C         142.5723  141.0372  169.9445 C.3     1  UNL1        0.0667
      5 C         141.3282  140.5212  170.6047 C.3     1  UNL1        0.2639
      6 F         140.3827  140.0852  171.6844 F       1  UNL1       -0.2043
      7 F         142.1876  140.7517  171.8123 F       1  UNL1       -0.2043
      8 C         140.1405  140.1393  169.7721 C.3     1  UNL1        0.0667
      9 C         140.1968  140.2734  168.2792 C.3     1  UNL1        0.0103
     10 C         139.1911  139.9779  167.2062 C.3     1  UNL1        0.0199
     11 C         139.8136  140.3112  165.8828 C.3     1  UNL1        0.0978
     12 C         141.2041  140.8128  166.1379 C.3     1  UNL1        0.1801
     13 N         139.1604  140.1682  164.5401 N.3     1  UNL1       -0.2697
     14 C         138.2102  141.2213  164.0523 C.3     1  UNL1        0.0722
     15 C         137.5570  141.0782  162.7097 C.3     1  UNL1        0.0187
     16 C         137.8539  139.8820  161.8548 C.3     1  UNL1        0.0183
     17 C         138.8041  138.8289  162.3426 C.3     1  UNL1        0.0670
     18 N         139.1012  137.6326  161.4876 N.3     1  UNL1       -0.3211
     19 C         139.4574  138.9720  163.6852 C.3     1  UNL1        0.0878
     20 H         139.7620  137.0247  161.9714 H       1  UNL1        0.1189
     21 H         139.5059  137.9390  160.6030 H       1  UNL1        0.1189
     22 O         142.1854  141.2594  165.0951 O.3     1  UNL1       -0.4778
     23 C         141.7329  142.1376  163.9665 C.ar    1  UNL1        0.1385
     24 C         141.2417  143.5268  164.2475 C.ar    1  UNL1        0.0376
     25 C         140.7892  144.4049  163.1188 C.ar    1  UNL1        0.0134
     26 C         140.8278  143.8940  161.7090 C.ar    1  UNL1        0.0686
     27 C         141.3190  142.5049  161.4279 C.ar    1  UNL1        0.0134
     28 C         141.7716  141.6267  162.5566 C.ar    1  UNL1        0.0376
     29 C         140.3753  144.7722  160.5803 C.1     1  UNL1        0.1004
     30 N         139.9228  145.6504  159.4516 N.1     1  UNL1       -0.1908
@<TRIPOS>BOND
     1     2     1    1
     2     2     3    1
     3     3     4    1
     4     4     5    1
     5     5     6    1
     6     5     7    1
     7     5     8    1
     8     9     8    1
     9     9    10    1
    10    10    11    1
    11    11    13    1
    12    13    14    1
    13    14    15    1
    14    15    16    1
    15    16    17    1
    16    17    18    1
    17    17    19    1
    18    11    12    1
    19    12    22    1
    20    22    23    1
    21    23    24   ar
    22    24    25   ar
    23    25    26   ar
    24    26    29    1
    25    29    30    3
    26    26    27   ar
    27    27    28   ar
    28     9     2    1
    29    19    13    1
    30    28    23   ar
    31    12     2    1
    32    18    20    1
    33    18    21    1
@<TRIPOS>MOLECULE
*****
 30 33 0 0 0
SMALL
GASTEIGER

@<TRIPOS>ATOM
      1 C         139.5681  140.7061  167.2203 C.3     1  UNL1        0.0036
      2 C         140.8889  140.1358  167.6450 C.3     1  UNL1        0.0386
      3 C         140.1351  140.8166  168.7487 C.3     1  UNL1        0.0091
      4 C         140.7197  140.8789  170.1287 C.3     1  UNL1        0.0667
      5 C         142.0580  140.2604  170.4049 C.3     1  UNL1        0.2639
      6 F         143.2822  139.8259  171.1550 F       1  UNL1       -0.2043
      7 F         141.7294  140.7903  171.7691 F       1  UNL1       -0.2043
      8 C         142.8118  139.5796  169.3012 C.3     1  UNL1        0.0667
      9 C         142.2272  139.5173  167.9212 C.3     1  UNL1        0.0103
     10 C         142.7337  138.9181  166.6427 C.3     1  UNL1        0.0199
     11 C         141.7084  139.1664  165.5763 C.3     1  UNL1        0.0978
     12 C         140.5683  139.9189  166.1958 C.3     1  UNL1        0.1801
     13 N         141.8061  138.7373  164.1423 N.3     1  UNL1       -0.2697
     14 C         140.5836  138.2563  163.4184 C.3     1  UNL1        0.0722
     15 C         140.6813  137.8273  161.9844 C.3     1  UNL1        0.0187
     16 C         142.0015  137.8793  161.2743 C.3     1  UNL1        0.0183
     17 C         143.2240  138.3603  161.9982 C.3     1  UNL1        0.0670
     18 N         144.5443  138.4123  161.2880 N.3     1  UNL1       -0.3211
     19 C         143.1263  138.7893  163.4322 C.3     1  UNL1        0.0878
     20 H         145.2599  138.7610  161.9258 H       1  UNL1        0.1189
     21 H         144.4733  139.0352  160.4834 H       1  UNL1        0.1189
     22 O         139.3256  140.3746  165.4899 O.3     1  UNL1       -0.4778
     23 C         139.3487  141.6259  164.6632 C.ar    1  UNL1        0.1385
     24 C         138.0956  142.4311  164.4861 C.ar    1  UNL1        0.0376
     25 C         138.1187  143.6825  163.6593 C.ar    1  UNL1        0.0134
     26 C         139.3949  144.1287  163.0096 C.ar    1  UNL1        0.0686
     27 C         140.6481  143.3235  163.1867 C.ar    1  UNL1        0.0134
     28 C         140.6250  142.0722  164.0135 C.ar    1  UNL1        0.0376
     29 C         139.4181  145.3800  162.1828 C.1     1  UNL1        0.1004
     30 N         139.4413  146.6314  161.3561 N.1     1  UNL1       -0.1908
@<TRIPOS>BOND
     1     2     1    1
     2     2     3    1
     3     3     4    1
     4     4     5    1
     5     5     6    1
     6     5     7    1
     7     5     8    1
     8     9     8    1
     9     9    10    1
    10    10    11    1
    11    11    13    1
    12    13    14    1
    13    14    15    1
    14    15    16    1
    15    16    17    1
    16    17    18    1
    17    17    19    1
    18    11    12    1
    19    12    22    1
    20    22    23    1
    21    23    24   ar
    22    24    25   ar
    23    25    26   ar
    24    26    29    1
    25    29    30    3
    26    26    27   ar
    27    27    28   ar
    28     9     2    1
    29    19    13    1
    30    28    23   ar
    31    12     2    1
    32    18    20    1
    33    18    21    1
@<TRIPOS>MOLECULE
*****
 30 33 0 0 0
SMALL
GASTEIGER

@<TRIPOS>ATOM
      1 C         139.6724  140.6233  166.1290 C.3     1  UNL1        0.0036
      2 C         140.8878  140.1112  166.8435 C.3     1  UNL1        0.0386
      3 C         139.7465  140.4582  167.7529 C.3     1  UNL1        0.0091
      4 C         139.8880  140.2800  169.2355 C.3     1  UNL1        0.0667
      5 C         141.1708  139.7548  169.8088 C.3     1  UNL1        0.2639
      6 F         142.1787  139.2946  170.8198 F       1  UNL1       -0.2043
      7 F         140.3795  139.9420  171.0692 F       1  UNL1       -0.2043
      8 C         142.3121  139.4077  168.8994 C.3     1  UNL1        0.0667
      9 C         142.1706  139.5859  167.4168 C.3     1  UNL1        0.0103
     10 C         143.1160  139.3309  166.2805 C.3     1  UNL1        0.0199
     11 C         142.4176  139.6985  165.0049 C.3     1  UNL1        0.0978
     12 C         141.0405  140.1807  165.3529 C.3     1  UNL1        0.1801
     13 N         142.9948  139.6010  163.6239 N.3     1  UNL1       -0.2697
     14 C         143.7720  140.7500  163.0530 C.3     1  UNL1        0.0722
     15 C         144.3492  140.6525  161.6720 C.3     1  UNL1        0.0187
     16 C         144.1494  139.4061  160.8618 C.3     1  UNL1        0.0183
     17 C         143.3722  138.2571  161.4327 C.3     1  UNL1        0.0670
     18 N         143.1723  137.0106  160.6225 N.3     1  UNL1       -0.3211
     19 C         142.7950  138.3546  162.8137 C.3     1  UNL1        0.0878
     20 H         142.6257  136.3389  161.1614 H       1  UNL1        0.1189
     21 H         144.0797  136.6048  160.3935 H       1  UNL1        0.1189
     22 O         139.9989  140.6501  164.3810 O.3     1  UNL1       -0.4778
     23 C         140.3685  141.6141  163.2929 C.ar    1  UNL1        0.1385
     24 C         140.2861  141.1910  161.8561 C.ar    1  UNL1        0.0376
     25 C         140.6558  142.1550  160.7680 C.ar    1  UNL1        0.0134
     26 C         141.1078  143.5421  161.1166 C.ar    1  UNL1        0.0686
     27 C         141.1902  143.9653  162.5533 C.ar    1  UNL1        0.0134
     28 C         140.8206  143.0013  163.6414 C.ar    1  UNL1        0.0376
     29 C         141.4775  144.5062  160.0285 C.1     1  UNL1        0.1004
     30 N         141.8471  145.4702  158.9404 N.1     1  UNL1       -0.1908
@<TRIPOS>BOND
     1     2     1    1
     2     2     3    1
     3     3     4    1
     4     4     5    1
     5     5     6    1
     6     5     7    1
     7     5     8    1
     8     9     8    1
     9     9    10    1
    10    10    11    1
    11    11    13    1
    12    13    14    1
    13    14    15    1
    14    15    16    1
    15    16    17    1
    16    17    18    1
    17    17    19    1
    18    11    12    1
    19    12    22    1
    20    22    23    1
    21    23    24   ar
    22    24    25   ar
    23    25    26   ar
    24    26    29    1
    25    29    30    3
    26    26    27   ar
    27    27    28   ar
    28     9     2    1
    29    19    13    1
    30    28    23   ar
    31    12     2    1
    32    18    20    1
    33    18    21    1
@<TRIPOS>MOLECULE
*****
 30 33 0 0 0
SMALL
GASTEIGER

@<TRIPOS>ATOM
      1 C         140.3960  142.9509  166.4115 C.3     1  UNL1        0.0036
      2 C         140.1786  141.7040  167.2165 C.3     1  UNL1        0.0386
      3 C         140.4277  142.9294  168.0449 C.3     1  UNL1        0.0091
      4 C         140.4423  142.8326  169.5417 C.3     1  UNL1        0.0667
      5 C         140.2078  141.5104  170.2101 C.3     1  UNL1        0.2639
      6 F         140.0395  140.4908  171.2973 F       1  UNL1       -0.2043
      7 F         140.3984  142.3817  171.4161 F       1  UNL1       -0.2043
      8 C         139.9587  140.2849  169.3817 C.3     1  UNL1        0.0667
      9 C         139.9441  140.3818  167.8849 C.3     1  UNL1        0.0103
     10 C         139.7269  139.3535  166.8147 C.3     1  UNL1        0.0199
     11 C         139.8271  140.0401  165.4848 C.3     1  UNL1        0.0978
     12 C         140.1063  141.4928  165.7332 C.3     1  UNL1        0.1801
     13 N         139.6749  139.3885  164.1424 N.3     1  UNL1       -0.2697
     14 C         138.3649  139.4650  163.4158 C.3     1  UNL1        0.0722
     15 C         138.2127  138.8134  162.0733 C.3     1  UNL1        0.0187
     16 C         139.3704  138.0853  161.4574 C.3     1  UNL1        0.0183
     17 C         140.6804  138.0088  162.1840 C.3     1  UNL1        0.0670
     18 N         141.8383  137.2806  161.5682 N.3     1  UNL1       -0.3211
     19 C         140.8327  138.6604  163.5265 C.3     1  UNL1        0.0878
     20 H         142.6420  137.3285  162.1944 H       1  UNL1        0.1189
     21 H         142.0764  137.7136  160.6758 H       1  UNL1        0.1189
     22 O         140.2823  142.5490  164.6827 O.3     1  UNL1       -0.4778
     23 C         141.0618  142.2459  163.4376 C.ar    1  UNL1        0.1385
     24 C         142.5321  141.9613  163.5238 C.ar    1  UNL1        0.0376
     25 C         143.3116  141.6582  162.2786 C.ar    1  UNL1        0.0134
     26 C         142.6209  141.6397  160.9472 C.ar    1  UNL1        0.0686
     27 C         141.1507  141.9244  160.8610 C.ar    1  UNL1        0.0134
     28 C         140.3712  142.2275  162.1062 C.ar    1  UNL1        0.0376
     29 C         143.4004  141.3366  159.7020 C.1     1  UNL1        0.1004
     30 N         144.1799  141.0336  158.4569 N.1     1  UNL1       -0.1908
@<TRIPOS>BOND
     1     2     1    1
     2     2     3    1
     3     3     4    1
     4     4     5    1
     5     5     6    1
     6     5     7    1
     7     5     8    1
     8     9     8    1
     9     9    10    1
    10    10    11    1
    11    11    13    1
    12    13    14    1
    13    14    15    1
    14    15    16    1
    15    16    17    1
    16    17    18    1
    17    17    19    1
    18    11    12    1
    19    12    22    1
    20    22    23    1
    21    23    24   ar
    22    24    25   ar
    23    25    26   ar
    24    26    29    1
    25    29    30    3
    26    26    27   ar
    27    27    28   ar
    28     9     2    1
    29    19    13    1
    30    28    23   ar
    31    12     2    1
    32    18    20    1
    33    18    21    1
