@<TRIPOS>MOLECULE
*****
 33 37 0 0 0
SMALL
GASTEIGER

@<TRIPOS>ATOM
      1 C         144.7277  137.9821  155.2004 C.3     1  UNL1        0.0719
      2 C         143.4666  138.0077  156.0124 C.ar    1  UNL1        0.1229
      3 N         143.4381  138.7217  157.3312 N.ar    1  UNL1       -0.2306
      4 C         142.1770  138.7473  158.1431 C.ar    1  UNL1        0.1065
      5 C         142.1485  139.4612  159.4620 C.ar    1  UNL1        0.1213
      6 N         140.8875  139.4868  160.2738 N.ar    1  UNL1       -0.2082
      7 C         139.6550  138.7984  159.7669 C.ar    1  UNL1        0.2300
      8 C         139.6835  138.0844  158.4480 C.ar    1  UNL1        0.0644
      9 C         140.9445  138.0588  157.6362 C.ar    1  UNL1        0.0800
     10 C         140.9731  137.3448  156.3173 C.ar    1  UNL1        0.2633
     11 O         139.7406  136.6564  155.8103 O.2     1  UNL1       -0.2669
     12 N         142.2341  137.3193  155.5054 N.ar    1  UNL1       -0.2840
     13 O         138.3940  138.8240  160.5788 O.3     1  UNL1       -0.4346
     14 C         138.4626  139.0148  162.0650 C.ar    1  UNL1        0.1646
     15 C         138.7327  137.8419  162.9602 C.ar    1  UNL1        0.0391
     16 C         138.8013  138.0329  164.4464 C.ar    1  UNL1        0.0032
     17 C         138.5999  139.3967  165.0375 C.ar    1  UNL1        0.0017
     18 C         138.3298  140.5696  164.1423 C.ar    1  UNL1        0.0207
     19 C         138.1284  141.9334  164.7334 C.ar    1  UNL1        0.0032
     20 C         137.8584  143.1064  163.8382 C.ar    1  UNL1        0.0207
     21 C         137.7897  142.9155  162.3520 C.ar    1  UNL1        0.0989
     22 N         137.9911  141.5517  161.7610 N.ar    1  UNL1       -0.2408
     23 C         138.2612  140.3787  162.6561 C.ar    1  UNL1        0.1157
     24 C         142.2627  136.6053  154.1865 C.3     1  UNL1        0.1115
     25 C         142.4404  135.1164  154.1433 C.3     1  UNL1        0.0388
     26 C         141.7830  134.3137  153.0600 C.3     1  UNL1        0.0048
     27 C         141.9607  132.8249  153.0169 C.3     1  UNL1        0.0174
     28 C         142.7959  132.1388  154.0571 C.3     1  UNL1        0.0720
     29 N         143.4533  132.9416  155.1403 N.3     1  UNL1       -0.2739
     30 C         143.2755  134.4304  155.1834 C.3     1  UNL1        0.0739
     31 C         144.2884  132.2555  156.1804 C.3     1  UNL1        0.0576
     32 C         144.5176  132.9106  157.5101 C.3     1  UNL1        0.0173
     33 C         144.8944  130.9142  155.8907 C.3     1  UNL1        0.0173
@<TRIPOS>BOND
     1     1     2    1
     2     2     3   ar
     3     3     4   ar
     4     4     5   ar
     5     5     6   ar
     6     6     7   ar
     7     7    13    1
     8    13    14    1
     9    14    15   ar
    10    15    16   ar
    11    16    17   ar
    12    17    18   ar
    13    18    19   ar
    14    19    20   ar
    15    20    21   ar
    16    21    22   ar
    17    22    23   ar
    18     7     8   ar
    19     8     9   ar
    20     9    10   ar
    21    10    11    2
    22    10    12   ar
    23    12    24    1
    24    25    24    1
    25    25    26    1
    26    26    27    1
    27    27    28    1
    28    28    29    1
    29    29    31    1
    30    31    32    1
    31    31    33    1
    32    29    30    1
    33    12     2   ar
    34    30    25    1
    35     9     4   ar
    36    23    14   ar
    37    23    18   ar
@<TRIPOS>MOLECULE
*****
 33 37 0 0 0
SMALL
GASTEIGER

@<TRIPOS>ATOM
      1 C         141.2318  145.0787  162.6934 C.3     1  UNL1        0.0719
      2 C         140.4438  144.1442  161.8239 C.ar    1  UNL1        0.1229
      3 N         140.8685  143.9017  160.4058 N.ar    1  UNL1       -0.2306
      4 C         140.0805  142.9672  159.5363 C.ar    1  UNL1        0.1065
      5 C         140.5052  142.7246  158.1183 C.ar    1  UNL1        0.1213
      6 N         139.7172  141.7902  157.2489 N.ar    1  UNL1       -0.2082
      7 C         138.5047  141.0983  157.7975 C.ar    1  UNL1        0.2300
      8 C         138.0801  141.3408  159.2155 C.ar    1  UNL1        0.0644
      9 C         138.8680  142.2752  160.0849 C.ar    1  UNL1        0.0800
     10 C         138.4434  142.5178  161.5030 C.ar    1  UNL1        0.2633
     11 O         137.2308  141.8259  162.0516 O.2     1  UNL1       -0.2669
     12 N         139.2313  143.4523  162.3725 N.ar    1  UNL1       -0.2840
     13 O         137.7167  140.1638  156.9280 O.3     1  UNL1       -0.4346
     14 C         136.8019  140.7124  155.8735 C.ar    1  UNL1        0.1646
     15 C         137.3734  141.3901  154.6635 C.ar    1  UNL1        0.0391
     16 C         136.4585  141.9388  153.6089 C.ar    1  UNL1        0.0032
     17 C         134.9722  141.8097  153.7644 C.ar    1  UNL1        0.0017
     18 C         134.4007  141.1320  154.9744 C.ar    1  UNL1        0.0207
     19 C         132.9144  141.0029  155.1299 C.ar    1  UNL1        0.0032
     20 C         132.3430  140.3251  156.3399 C.ar    1  UNL1        0.0207
     21 C         133.2578  139.7765  157.3944 C.ar    1  UNL1        0.0989
     22 N         134.7441  139.9056  157.2389 N.ar    1  UNL1       -0.2408
     23 C         135.3155  140.5833  156.0289 C.ar    1  UNL1        0.1157
     24 C         138.8067  143.6949  163.7906 C.3     1  UNL1        0.1115
     25 C         139.2506  142.7604  164.8767 C.3     1  UNL1        0.0388
     26 C         140.2030  143.2369  165.9331 C.3     1  UNL1        0.0048
     27 C         140.6469  142.3024  167.0193 C.3     1  UNL1        0.0174
     28 C         140.1385  140.8914  167.0489 C.3     1  UNL1        0.0720
     29 N         139.1863  140.4150  165.9924 N.3     1  UNL1       -0.2739
     30 C         138.7423  141.3495  164.9063 C.3     1  UNL1        0.0739
     31 C         138.6779  139.0041  166.0221 C.3     1  UNL1        0.0576
     32 C         139.2137  137.9933  165.0519 C.3     1  UNL1        0.0173
     33 C         137.6337  138.6039  167.0219 C.3     1  UNL1        0.0173
@<TRIPOS>BOND
     1     1     2    1
     2     2     3   ar
     3     3     4   ar
     4     4     5   ar
     5     5     6   ar
     6     6     7   ar
     7     7    13    1
     8    13    14    1
     9    14    15   ar
    10    15    16   ar
    11    16    17   ar
    12    17    18   ar
    13    18    19   ar
    14    19    20   ar
    15    20    21   ar
    16    21    22   ar
    17    22    23   ar
    18     7     8   ar
    19     8     9   ar
    20     9    10   ar
    21    10    11    2
    22    10    12   ar
    23    12    24    1
    24    25    24    1
    25    25    26    1
    26    26    27    1
    27    27    28    1
    28    28    29    1
    29    29    31    1
    30    31    32    1
    31    31    33    1
    32    29    30    1
    33    12     2   ar
    34    30    25    1
    35     9     4   ar
    36    23    14   ar
    37    23    18   ar
@<TRIPOS>MOLECULE
*****
 33 37 0 0 0
SMALL
GASTEIGER

@<TRIPOS>ATOM
      1 C         143.5794  145.1528  163.9690 C.3     1  UNL1        0.0719
      2 C         143.6378  143.9221  163.1132 C.ar    1  UNL1        0.1229
      3 N         143.5142  144.0384  161.6229 N.ar    1  UNL1       -0.2306
      4 C         143.5726  142.8078  160.7672 C.ar    1  UNL1        0.1065
      5 C         143.4490  142.9240  159.2768 C.ar    1  UNL1        0.1213
      6 N         143.5074  141.6934  158.4212 N.ar    1  UNL1       -0.2082
      7 C         143.6895  140.3466  159.0559 C.ar    1  UNL1        0.2300
      8 C         143.8131  140.2303  160.5462 C.ar    1  UNL1        0.0644
      9 C         143.7547  141.4609  161.4018 C.ar    1  UNL1        0.0800
     10 C         143.8784  141.3447  162.8923 C.ar    1  UNL1        0.2633
     11 O         144.0604  139.9978  163.5270 O.2     1  UNL1       -0.2669
     12 N         143.8199  142.5753  163.7479 N.ar    1  UNL1       -0.2840
     13 O         143.7479  139.1160  158.2001 O.3     1  UNL1       -0.4346
     14 C         142.4807  138.4961  157.6903 C.ar    1  UNL1        0.1646
     15 C         141.1521  139.0220  158.1466 C.ar    1  UNL1        0.0391
     16 C         139.8849  138.4021  157.6368 C.ar    1  UNL1        0.0032
     17 C         139.9463  137.2563  156.6707 C.ar    1  UNL1        0.0017
     18 C         141.2749  136.7304  156.2143 C.ar    1  UNL1        0.0207
     19 C         141.3363  135.5847  155.2482 C.ar    1  UNL1        0.0032
     20 C         142.6649  135.0588  154.7919 C.ar    1  UNL1        0.0207
     21 C         143.9321  135.6787  155.3017 C.ar    1  UNL1        0.0989
     22 N         143.8707  136.8244  156.2678 N.ar    1  UNL1       -0.2408
     23 C         142.5421  137.3503  156.7241 C.ar    1  UNL1        0.1157
     24 C         143.9436  142.4591  165.2383 C.3     1  UNL1        0.1115
     25 C         142.7396  142.1209  166.0667 C.3     1  UNL1        0.0388
     26 C         142.8257  142.1551  167.5639 C.3     1  UNL1        0.0048
     27 C         141.6217  141.8170  168.3922 C.3     1  UNL1        0.0174
     28 C         140.3317  141.4447  167.7234 C.3     1  UNL1        0.0720
     29 N         140.2457  141.4106  166.2262 N.3     1  UNL1       -0.2739
     30 C         141.4496  141.7487  165.3979 C.3     1  UNL1        0.0739
     31 C         138.9557  141.0383  165.5575 C.3     1  UNL1        0.0576
     32 C         138.3498  139.6870  165.7961 C.3     1  UNL1        0.0173
     33 C         138.2715  142.0173  164.6500 C.3     1  UNL1        0.0173
@<TRIPOS>BOND
     1     1     2    1
     2     2     3   ar
     3     3     4   ar
     4     4     5   ar
     5     5     6   ar
     6     6     7   ar
     7     7    13    1
     8    13    14    1
     9    14    15   ar
    10    15    16   ar
    11    16    17   ar
    12    17    18   ar
    13    18    19   ar
    14    19    20   ar
    15    20    21   ar
    16    21    22   ar
    17    22    23   ar
    18     7     8   ar
    19     8     9   ar
    20     9    10   ar
    21    10    11    2
    22    10    12   ar
    23    12    24    1
    24    25    24    1
    25    25    26    1
    26    26    27    1
    27    27    28    1
    28    28    29    1
    29    29    31    1
    30    31    32    1
    31    31    33    1
    32    29    30    1
    33    12     2   ar
    34    30    25    1
    35     9     4   ar
    36    23    14   ar
    37    23    18   ar
@<TRIPOS>MOLECULE
*****
 33 37 0 0 0
SMALL
GASTEIGER

@<TRIPOS>ATOM
      1 C         138.5947  140.5028  159.0658 C.3     1  UNL1        0.0719
      2 C         139.4869  139.4696  158.4441 C.ar    1  UNL1        0.1229
      3 N         139.0450  138.7425  157.2088 N.ar    1  UNL1       -0.2306
      4 C         139.9372  137.7093  156.5870 C.ar    1  UNL1        0.1065
      5 C         139.4953  136.9822  155.3517 C.ar    1  UNL1        0.1213
      6 N         140.3875  135.9490  154.7300 N.ar    1  UNL1       -0.2082
      7 C         141.7215  135.6429  155.3437 C.ar    1  UNL1        0.2300
      8 C         142.1635  136.3700  156.5790 C.ar    1  UNL1        0.0644
      9 C         141.2713  137.4032  157.2006 C.ar    1  UNL1        0.0800
     10 C         141.7132  138.1303  158.4360 C.ar    1  UNL1        0.2633
     11 O         143.0473  137.8243  159.0496 O.2     1  UNL1       -0.2669
     12 N         140.8210  139.1635  159.0577 N.ar    1  UNL1       -0.2840
     13 O         142.6137  134.6097  154.7219 O.3     1  UNL1       -0.4346
     14 C         142.3649  133.1526  154.9768 C.ar    1  UNL1        0.1646
     15 C         141.2923  132.4306  154.2164 C.ar    1  UNL1        0.0391
     16 C         141.0436  130.9735  154.4713 C.ar    1  UNL1        0.0032
     17 C         141.8674  130.2384  155.4867 C.ar    1  UNL1        0.0017
     18 C         142.9400  130.9604  156.2471 C.ar    1  UNL1        0.0207
     19 C         143.7638  130.2253  157.2624 C.ar    1  UNL1        0.0032
     20 C         144.8364  130.9473  158.0229 C.ar    1  UNL1        0.0207
     21 C         145.0852  132.4044  157.7680 C.ar    1  UNL1        0.0989
     22 N         144.2614  133.1394  156.7526 N.ar    1  UNL1       -0.2408
     23 C         143.1888  132.4175  155.9922 C.ar    1  UNL1        0.1157
     24 C         141.2629  139.8907  160.2930 C.3     1  UNL1        0.1115
     25 C         141.3020  139.1752  161.6108 C.3     1  UNL1        0.0388
     26 C         140.1815  138.2566  161.9991 C.3     1  UNL1        0.0048
     27 C         140.2206  137.5411  163.3169 C.3     1  UNL1        0.0174
     28 C         141.3803  137.7443  164.2464 C.3     1  UNL1        0.0720
     29 N         142.5007  138.6629  163.8582 N.3     1  UNL1       -0.2739
     30 C         142.4616  139.3783  162.5404 C.3     1  UNL1        0.0739
     31 C         143.6603  138.8660  164.7877 C.3     1  UNL1        0.0576
     32 C         143.6021  138.3305  166.1877 C.3     1  UNL1        0.0173
     33 C         144.8782  139.6046  164.3173 C.3     1  UNL1        0.0173
@<TRIPOS>BOND
     1     1     2    1
     2     2     3   ar
     3     3     4   ar
     4     4     5   ar
     5     5     6   ar
     6     6     7   ar
     7     7    13    1
     8    13    14    1
     9    14    15   ar
    10    15    16   ar
    11    16    17   ar
    12    17    18   ar
    13    18    19   ar
    14    19    20   ar
    15    20    21   ar
    16    21    22   ar
    17    22    23   ar
    18     7     8   ar
    19     8     9   ar
    20     9    10   ar
    21    10    11    2
    22    10    12   ar
    23    12    24    1
    24    25    24    1
    25    25    26    1
    26    26    27    1
    27    27    28    1
    28    28    29    1
    29    29    31    1
    30    31    32    1
    31    31    33    1
    32    29    30    1
    33    12     2   ar
    34    30    25    1
    35     9     4   ar
    36    23    14   ar
    37    23    18   ar
@<TRIPOS>MOLECULE
*****
 33 37 0 0 0
SMALL
GASTEIGER

@<TRIPOS>ATOM
      1 C         144.4088  143.0937  162.3344 C.3     1  UNL1        0.0719
      2 C         143.3859  143.6403  161.3830 C.ar    1  UNL1        0.1229
      3 N         143.4345  143.2639  159.9319 N.ar    1  UNL1       -0.2306
      4 C         142.4116  143.8105  158.9805 C.ar    1  UNL1        0.1065
      5 C         142.4603  143.4340  157.5294 C.ar    1  UNL1        0.1213
      6 N         141.4374  143.9806  156.5781 N.ar    1  UNL1       -0.2082
      7 C         140.3659  144.9037  157.0780 C.ar    1  UNL1        0.2300
      8 C         140.3173  145.2801  158.5291 C.ar    1  UNL1        0.0644
      9 C         141.3401  144.7335  159.4804 C.ar    1  UNL1        0.0800
     10 C         141.2915  145.1100  160.9316 C.ar    1  UNL1        0.2633
     11 O         140.2201  146.0330  161.4315 O.2     1  UNL1       -0.2669
     12 N         142.3144  144.5634  161.8829 N.ar    1  UNL1       -0.2840
     13 O         139.3431  145.4503  156.1266 O.3     1  UNL1       -0.4346
     14 C         139.7275  146.5151  155.1426 C.ar    1  UNL1        0.1646
     15 C         140.4782  146.1491  153.8966 C.ar    1  UNL1        0.0391
     16 C         140.8626  147.2140  152.9125 C.ar    1  UNL1        0.0032
     17 C         140.4963  148.6447  153.1744 C.ar    1  UNL1        0.0017
     18 C         139.7455  149.0107  154.4204 C.ar    1  UNL1        0.0207
     19 C         139.3791  150.4415  154.6822 C.ar    1  UNL1        0.0032
     20 C         138.6284  150.8075  155.9282 C.ar    1  UNL1        0.0207
     21 C         138.2440  149.7427  156.9123 C.ar    1  UNL1        0.0989
     22 N         138.6103  148.3120  156.6504 N.ar    1  UNL1       -0.2408
     23 C         139.3611  147.9460  155.4044 C.ar    1  UNL1        0.1157
     24 C         142.2658  144.9398  163.3341 C.3     1  UNL1        0.1115
     25 C         141.5244  144.0739  164.3091 C.3     1  UNL1        0.0388
     26 C         140.0246  144.0477  164.2993 C.3     1  UNL1        0.0048
     27 C         139.2833  143.1818  165.2743 C.3     1  UNL1        0.0174
     28 C         140.0417  142.3421  166.2591 C.3     1  UNL1        0.0720
     29 N         141.5414  142.3684  166.2689 N.3     1  UNL1       -0.2739
     30 C         142.2828  143.2343  165.2939 C.3     1  UNL1        0.0739
     31 C         142.2997  141.5287  167.2537 C.3     1  UNL1        0.0576
     32 C         142.3975  140.0450  167.0558 C.3     1  UNL1        0.0173
     33 C         142.9604  142.1727  168.4365 C.3     1  UNL1        0.0173
@<TRIPOS>BOND
     1     1     2    1
     2     2     3   ar
     3     3     4   ar
     4     4     5   ar
     5     5     6   ar
     6     6     7   ar
     7     7    13    1
     8    13    14    1
     9    14    15   ar
    10    15    16   ar
    11    16    17   ar
    12    17    18   ar
    13    18    19   ar
    14    19    20   ar
    15    20    21   ar
    16    21    22   ar
    17    22    23   ar
    18     7     8   ar
    19     8     9   ar
    20     9    10   ar
    21    10    11    2
    22    10    12   ar
    23    12    24    1
    24    25    24    1
    25    25    26    1
    26    26    27    1
    27    27    28    1
    28    28    29    1
    29    29    31    1
    30    31    32    1
    31    31    33    1
    32    29    30    1
    33    12     2   ar
    34    30    25    1
    35     9     4   ar
    36    23    14   ar
    37    23    18   ar
@<TRIPOS>MOLECULE
*****
 33 37 0 0 0
SMALL
GASTEIGER

@<TRIPOS>ATOM
      1 C         138.8284  138.6182  164.0983 C.3     1  UNL1        0.0719
      2 C         139.8042  138.4674  162.9690 C.ar    1  UNL1        0.1229
      3 N         139.3264  138.5460  161.5493 N.ar    1  UNL1       -0.2306
      4 C         140.3022  138.3953  160.4201 C.ar    1  UNL1        0.1065
      5 C         139.8244  138.4739  159.0004 C.ar    1  UNL1        0.1213
      6 N         140.8002  138.3231  157.8713 N.ar    1  UNL1       -0.2082
      7 C         142.2538  138.0937  158.1618 C.ar    1  UNL1        0.2300
      8 C         142.7317  138.0151  159.5814 C.ar    1  UNL1        0.0644
      9 C         141.7559  138.1659  160.7106 C.ar    1  UNL1        0.0800
     10 C         142.2336  138.0873  162.1303 C.ar    1  UNL1        0.2633
     11 O         143.6873  137.8579  162.4208 O.2     1  UNL1       -0.2669
     12 N         141.2578  138.2380  163.2595 N.ar    1  UNL1       -0.2840
     13 O         143.2297  137.9430  157.0325 O.3     1  UNL1       -0.4346
     14 C         142.8683  137.1161  155.8344 C.ar    1  UNL1        0.1646
     15 C         142.4767  137.7865  154.5509 C.ar    1  UNL1        0.0391
     16 C         142.1153  136.9595  153.3527 C.ar    1  UNL1        0.0032
     17 C         142.1455  135.4623  153.4380 C.ar    1  UNL1        0.0017
     18 C         142.5371  134.7919  154.7215 C.ar    1  UNL1        0.0207
     19 C         142.5673  133.2947  154.8067 C.ar    1  UNL1        0.0032
     20 C         142.9589  132.6243  156.0902 C.ar    1  UNL1        0.0207
     21 C         143.3203  133.4512  157.2884 C.ar    1  UNL1        0.0989
     22 N         143.2901  134.9484  157.2031 N.ar    1  UNL1       -0.2408
     23 C         142.8985  135.6188  155.9196 C.ar    1  UNL1        0.1157
     24 C         141.7356  138.1594  164.6792 C.3     1  UNL1        0.1115
     25 C         142.1668  139.4048  165.3955 C.3     1  UNL1        0.0388
     26 C         141.6379  139.7024  166.7673 C.3     1  UNL1        0.0048
     27 C         142.0690  140.9478  167.4835 C.3     1  UNL1        0.0174
     28 C         143.0292  141.8957  166.8280 C.3     1  UNL1        0.0720
     29 N         143.5581  141.5981  165.4563 N.3     1  UNL1       -0.2739
     30 C         143.1269  140.3527  164.7400 C.3     1  UNL1        0.0739
     31 C         144.5182  142.5460  164.8008 C.3     1  UNL1        0.0576
     32 C         144.4297  144.0168  165.0817 C.3     1  UNL1        0.0173
     33 C         145.5669  142.0231  163.8643 C.3     1  UNL1        0.0173
@<TRIPOS>BOND
     1     1     2    1
     2     2     3   ar
     3     3     4   ar
     4     4     5   ar
     5     5     6   ar
     6     6     7   ar
     7     7    13    1
     8    13    14    1
     9    14    15   ar
    10    15    16   ar
    11    16    17   ar
    12    17    18   ar
    13    18    19   ar
    14    19    20   ar
    15    20    21   ar
    16    21    22   ar
    17    22    23   ar
    18     7     8   ar
    19     8     9   ar
    20     9    10   ar
    21    10    11    2
    22    10    12   ar
    23    12    24    1
    24    25    24    1
    25    25    26    1
    26    26    27    1
    27    27    28    1
    28    28    29    1
    29    29    31    1
    30    31    32    1
    31    31    33    1
    32    29    30    1
    33    12     2   ar
    34    30    25    1
    35     9     4   ar
    36    23    14   ar
    37    23    18   ar
@<TRIPOS>MOLECULE
*****
 33 37 0 0 0
SMALL
GASTEIGER

@<TRIPOS>ATOM
      1 C         143.7237  145.2614  163.9112 C.3     1  UNL1        0.0719
      2 C         143.7412  143.9906  163.1145 C.ar    1  UNL1        0.1229
      3 N         143.6151  144.0401  161.6206 N.ar    1  UNL1       -0.2306
      4 C         143.6326  142.7693  160.8239 C.ar    1  UNL1        0.1065
      5 C         143.5065  142.8188  159.3300 C.ar    1  UNL1        0.1213
      6 N         143.5240  141.5480  158.5334 N.ar    1  UNL1       -0.2082
      7 C         143.6676  140.2277  159.2306 C.ar    1  UNL1        0.2300
      8 C         143.7937  140.1781  160.7244 C.ar    1  UNL1        0.0644
      9 C         143.7762  141.4489  161.5211 C.ar    1  UNL1        0.0800
     10 C         143.9023  141.3994  163.0150 C.ar    1  UNL1        0.2633
     11 O         144.0459  140.0791  163.7122 O.2     1  UNL1       -0.2669
     12 N         143.8848  142.6703  163.8116 N.ar    1  UNL1       -0.2840
     13 O         143.6852  138.9568  158.4338 O.3     1  UNL1       -0.4346
     14 C         142.4088  138.4090  157.8676 C.ar    1  UNL1        0.1646
     15 C         141.0890  138.9475  158.3347 C.ar    1  UNL1        0.0391
     16 C         139.8126  138.3996  157.7684 C.ar    1  UNL1        0.0032
     17 C         139.8560  137.3132  156.7350 C.ar    1  UNL1        0.0017
     18 C         141.1758  136.7747  156.2679 C.ar    1  UNL1        0.0207
     19 C         141.2192  135.6883  155.2346 C.ar    1  UNL1        0.0032
     20 C         142.5390  135.1498  154.7675 C.ar    1  UNL1        0.0207
     21 C         143.8153  135.6977  155.3337 C.ar    1  UNL1        0.0989
     22 N         143.7719  136.7840  156.3671 N.ar    1  UNL1       -0.2408
     23 C         142.4522  137.3226  156.8342 C.ar    1  UNL1        0.1157
     24 C         144.0109  142.6208  165.3056 C.3     1  UNL1        0.1115
     25 C         142.7876  142.4470  166.1561 C.3     1  UNL1        0.0388
     26 C         141.4304  142.7336  165.5853 C.3     1  UNL1        0.0048
     27 C         140.2071  142.5598  166.4358 C.3     1  UNL1        0.0174
     28 C         140.3411  142.0995  167.8572 C.3     1  UNL1        0.0720
     29 N         141.6983  141.8130  168.4280 N.3     1  UNL1       -0.2739
     30 C         142.9216  141.9868  167.5774 C.3     1  UNL1        0.0739
     31 C         141.8323  141.3527  169.8493 C.3     1  UNL1        0.0576
     32 C         140.7678  141.6907  170.8506 C.3     1  UNL1        0.0173
     33 C         143.0308  140.5544  170.2694 C.3     1  UNL1        0.0173
@<TRIPOS>BOND
     1     1     2    1
     2     2     3   ar
     3     3     4   ar
     4     4     5   ar
     5     5     6   ar
     6     6     7   ar
     7     7    13    1
     8    13    14    1
     9    14    15   ar
    10    15    16   ar
    11    16    17   ar
    12    17    18   ar
    13    18    19   ar
    14    19    20   ar
    15    20    21   ar
    16    21    22   ar
    17    22    23   ar
    18     7     8   ar
    19     8     9   ar
    20     9    10   ar
    21    10    11    2
    22    10    12   ar
    23    12    24    1
    24    25    24    1
    25    25    26    1
    26    26    27    1
    27    27    28    1
    28    28    29    1
    29    29    31    1
    30    31    32    1
    31    31    33    1
    32    29    30    1
    33    12     2   ar
    34    30    25    1
    35     9     4   ar
    36    23    14   ar
    37    23    18   ar
@<TRIPOS>MOLECULE
*****
 33 37 0 0 0
SMALL
GASTEIGER

@<TRIPOS>ATOM
      1 C         138.8672  138.3740  164.5548 C.3     1  UNL1        0.0719
      2 C         139.8517  138.3430  163.4234 C.ar    1  UNL1        0.1229
      3 N         139.3641  138.3335  162.0050 N.ar    1  UNL1       -0.2306
      4 C         140.3485  138.3025  160.8736 C.ar    1  UNL1        0.1065
      5 C         139.8609  138.2930  159.4552 C.ar    1  UNL1        0.1213
      6 N         140.8453  138.2620  158.3239 N.ar    1  UNL1       -0.2082
      7 C         142.3174  138.2405  158.6110 C.ar    1  UNL1        0.2300
      8 C         142.8051  138.2501  160.0295 C.ar    1  UNL1        0.0644
      9 C         141.8206  138.2810  161.1608 C.ar    1  UNL1        0.0800
     10 C         142.3083  138.2905  162.5793 C.ar    1  UNL1        0.2633
     11 O         143.7804  138.2691  162.8665 O.2     1  UNL1       -0.2669
     12 N         141.3238  138.3215  163.7106 N.ar    1  UNL1       -0.2840
     13 O         143.3019  138.2096  157.4797 O.3     1  UNL1       -0.4346
     14 C         142.9242  137.5751  156.1740 C.ar    1  UNL1        0.1646
     15 C         142.5536  138.4346  155.0019 C.ar    1  UNL1        0.0391
     16 C         142.1759  137.8000  153.6962 C.ar    1  UNL1        0.0032
     17 C         142.1688  136.3060  153.5627 C.ar    1  UNL1        0.0017
     18 C         142.5395  135.4465  154.7348 C.ar    1  UNL1        0.0207
     19 C         142.5324  133.9525  154.6013 C.ar    1  UNL1        0.0032
     20 C         142.9030  133.0930  155.7735 C.ar    1  UNL1        0.0207
     21 C         143.2807  133.7275  157.0791 C.ar    1  UNL1        0.0989
     22 N         143.2877  135.2215  157.2126 N.ar    1  UNL1       -0.2408
     23 C         142.9171  136.0810  156.0405 C.ar    1  UNL1        0.1157
     24 C         141.8114  138.3310  165.1292 C.3     1  UNL1        0.1115
     25 C         141.9767  139.6324  165.8567 C.3     1  UNL1        0.0388
     26 C         143.0367  140.6027  165.4266 C.3     1  UNL1        0.0048
     27 C         143.2020  141.9040  166.1541 C.3     1  UNL1        0.0174
     28 C         142.3072  142.2350  167.3117 C.3     1  UNL1        0.0720
     29 N         141.2473  141.2646  167.7418 N.3     1  UNL1       -0.2739
     30 C         141.0821  139.9633  167.0143 C.3     1  UNL1        0.0739
     31 C         140.3527  141.5956  168.8994 C.3     1  UNL1        0.0576
     32 C         140.3667  142.9754  169.4875 C.3     1  UNL1        0.0173
     33 C         139.4440  140.5467  169.4688 C.3     1  UNL1        0.0173
@<TRIPOS>BOND
     1     1     2    1
     2     2     3   ar
     3     3     4   ar
     4     4     5   ar
     5     5     6   ar
     6     6     7   ar
     7     7    13    1
     8    13    14    1
     9    14    15   ar
    10    15    16   ar
    11    16    17   ar
    12    17    18   ar
    13    18    19   ar
    14    19    20   ar
    15    20    21   ar
    16    21    22   ar
    17    22    23   ar
    18     7     8   ar
    19     8     9   ar
    20     9    10   ar
    21    10    11    2
    22    10    12   ar
    23    12    24    1
    24    25    24    1
    25    25    26    1
    26    26    27    1
    27    27    28    1
    28    28    29    1
    29    29    31    1
    30    31    32    1
    31    31    33    1
    32    29    30    1
    33    12     2   ar
    34    30    25    1
    35     9     4   ar
    36    23    14   ar
    37    23    18   ar
@<TRIPOS>MOLECULE
*****
 33 37 0 0 0
SMALL
GASTEIGER

@<TRIPOS>ATOM
      1 C         143.8150  143.3415  162.2546 C.3     1  UNL1        0.0719
      2 C         142.9030  143.8363  161.1713 C.ar    1  UNL1        0.1229
      3 N         143.2439  143.5872  159.7320 N.ar    1  UNL1       -0.2306
      4 C         142.3319  144.0820  158.6487 C.ar    1  UNL1        0.1065
      5 C         142.6729  143.8329  157.2094 C.ar    1  UNL1        0.1213
      6 N         141.7609  144.3277  156.1261 N.ar    1  UNL1       -0.2082
      7 C         140.5080  145.0716  156.4822 C.ar    1  UNL1        0.2300
      8 C         140.1671  145.3207  157.9215 C.ar    1  UNL1        0.0644
      9 C         141.0790  144.8259  159.0047 C.ar    1  UNL1        0.0800
     10 C         140.7381  145.0750  160.4441 C.ar    1  UNL1        0.2633
     11 O         139.4852  145.8190  160.8002 O.2     1  UNL1       -0.2669
     12 N         141.6501  144.5802  161.5274 N.ar    1  UNL1       -0.2840
     13 O         139.5960  145.5664  155.3989 O.3     1  UNL1       -0.4346
     14 C         140.0518  146.6561  154.4744 C.ar    1  UNL1        0.1646
     15 C         140.9053  146.3238  153.2866 C.ar    1  UNL1        0.0391
     16 C         141.3611  147.4136  152.3620 C.ar    1  UNL1        0.0032
     17 C         140.9634  148.8357  152.6254 C.ar    1  UNL1        0.0017
     18 C         140.1099  149.1680  153.8133 C.ar    1  UNL1        0.0207
     19 C         139.7122  150.5901  154.0767 C.ar    1  UNL1        0.0032
     20 C         138.8586  150.9225  155.2645 C.ar    1  UNL1        0.0207
     21 C         138.4028  149.8328  156.1890 C.ar    1  UNL1        0.0989
     22 N         138.8005  148.4107  155.9256 N.ar    1  UNL1       -0.2408
     23 C         139.6541  148.0783  154.7378 C.ar    1  UNL1        0.1157
     24 C         141.3092  144.8293  162.9668 C.3     1  UNL1        0.1115
     25 C         140.0953  144.1886  163.5717 C.3     1  UNL1        0.0388
     26 C         139.1427  145.0096  164.3895 C.3     1  UNL1        0.0048
     27 C         137.9288  144.3689  164.9944 C.3     1  UNL1        0.0174
     28 C         137.6676  142.9072  164.7817 C.3     1  UNL1        0.0720
     29 N         138.6201  142.0863  163.9640 N.3     1  UNL1       -0.2739
     30 C         139.8340  142.7270  163.3590 C.3     1  UNL1        0.0739
     31 C         138.3588  140.6246  163.7513 C.3     1  UNL1        0.0576
     32 C         138.0630  140.1082  162.3744 C.3     1  UNL1        0.0173
     33 C         138.3934  139.6793  164.9155 C.3     1  UNL1        0.0173
@<TRIPOS>BOND
     1     1     2    1
     2     2     3   ar
     3     3     4   ar
     4     4     5   ar
     5     5     6   ar
     6     6     7   ar
     7     7    13    1
     8    13    14    1
     9    14    15   ar
    10    15    16   ar
    11    16    17   ar
    12    17    18   ar
    13    18    19   ar
    14    19    20   ar
    15    20    21   ar
    16    21    22   ar
    17    22    23   ar
    18     7     8   ar
    19     8     9   ar
    20     9    10   ar
    21    10    11    2
    22    10    12   ar
    23    12    24    1
    24    25    24    1
    25    25    26    1
    26    26    27    1
    27    27    28    1
    28    28    29    1
    29    29    31    1
    30    31    32    1
    31    31    33    1
    32    29    30    1
    33    12     2   ar
    34    30    25    1
    35     9     4   ar
    36    23    14   ar
    37    23    18   ar
