@<TRIPOS>MOLECULE
*****
 34 36 0 0 0
SMALL
GASTEIGER

@<TRIPOS>ATOM
      1 C         141.2580  140.4912  168.3209 C.ar    1  UNL1        0.0519
      2 C         140.7590  140.6786  169.7230 C.ar    1  UNL1        0.0853
      3 C         139.3653  140.2589  170.0855 C.ar    1  UNL1        0.1045
      4 N         138.4706  139.6517  169.0459 N.ar    1  UNL1       -0.2436
      5 C         138.9695  139.4642  167.6438 C.ar    1  UNL1        0.0825
      6 C         138.0748  138.8570  166.6042 C.ar    1  UNL1        0.0191
      7 C         138.5738  138.6695  165.2021 C.ar    1  UNL1        0.0016
      8 C         139.9675  139.0893  164.8397 C.ar    1  UNL1        0.0016
      9 C         140.8623  139.6965  165.8792 C.ar    1  UNL1        0.0028
     10 C         140.3633  139.8839  167.2813 C.ar    1  UNL1        0.0309
     11 C         140.4665  138.9018  163.4375 C.ar    1  UNL1        0.0192
     12 C         140.3487  140.0191  162.4438 C.ar    1  UNL1        0.0028
     13 C         140.8477  139.8316  161.0416 C.ar    1  UNL1        0.0165
     14 C         141.4645  138.5267  160.6333 C.ar    1  UNL1        0.0828
     15 N         141.5823  137.4093  161.6271 N.ar    1  UNL1       -0.2464
     16 C         141.0833  137.5968  163.0292 C.ar    1  UNL1        0.0985
     17 C         141.9634  138.3392  159.2312 C.3     1  UNL1        0.1962
     18 S         142.9036  139.3411  158.6295 S.O2    1  UNL1       -0.0025
     19 C         143.8437  140.3432  158.0276 C.3     1  UNL1        0.1765
     20 O         143.9517  138.9602  159.6325 O.2     1  UNL1       -0.1726
     21 O         141.8554  139.7221  157.6264 O.2     1  UNL1       -0.1726
     22 C         141.6537  141.2859  170.7627 C.2     1  UNL1        0.2455
     23 N         142.6082  140.4193  171.5294 N.am    1  UNL1       -0.3252
     24 O         141.5939  142.7596  171.0355 O.2     1  UNL1       -0.2703
     25 H         142.6475  139.4520  171.3504 H       1  UNL1        0.1453
     26 H         143.1955  140.8178  172.2118 H       1  UNL1        0.1453
     27 N         142.6517  140.9109  167.9584 N.pl3   1  UNL1       -0.3325
     28 H         143.4060  140.2967  168.1105 H       1  UNL1        0.1468
     29 C         142.8962  142.2664  167.3643 C.3     1  UNL1        0.0870
     30 C         142.9270  142.4377  165.8744 C.3     1  UNL1        0.0195
     31 C         140.4525  143.2283  165.8362 C.3     1  UNL1        0.0001
     32 C         141.7958  143.1320  165.1757 C.3     1  UNL1        0.0017
     33 C         144.0891  141.9146  165.0832 C.3     1  UNL1        0.0017
     34 C         144.0132  140.5588  164.4461 C.3     1  UNL1        0.0001
@<TRIPOS>BOND
     1    31    32    1
     2    32    30    1
     3    30    33    1
     4    33    34    1
     5    30    29    1
     6    29    27    1
     7    27     1    1
     8     1     2   ar
     9     2    22    1
    10    22    23   am
    11    22    24    2
    12     2     3   ar
    13     3     4   ar
    14     4     5   ar
    15     5     6   ar
    16     6     7   ar
    17     7     8   ar
    18     8    11    1
    19    11    12   ar
    20    12    13   ar
    21    13    14   ar
    22    14    17    1
    23    17    18    1
    24    18    19    1
    25    18    20    2
    26    18    21    2
    27    14    15   ar
    28    15    16   ar
    29     8     9   ar
    30     9    10   ar
    31    10     1   ar
    32    10     5   ar
    33    16    11   ar
    34    27    28    1
    35    23    25    1
    36    23    26    1
@<TRIPOS>MOLECULE
*****
 34 36 0 0 0
SMALL
GASTEIGER

@<TRIPOS>ATOM
      1 C         140.5581  141.6365  167.9979 C.ar    1  UNL1        0.0519
      2 C         140.3829  141.7644  169.4821 C.ar    1  UNL1        0.0853
      3 C         139.4292  140.8604  170.2055 C.ar    1  UNL1        0.1045
      4 N         138.6507  139.8284  169.4446 N.ar    1  UNL1       -0.2436
      5 C         138.8259  139.7005  167.9603 C.ar    1  UNL1        0.0825
      6 C         138.0474  138.6685  167.1994 C.ar    1  UNL1        0.0191
      7 C         138.2226  138.5406  165.7152 C.ar    1  UNL1        0.0016
      8 C         139.1763  139.4447  164.9919 C.ar    1  UNL1        0.0016
      9 C         139.9547  140.4766  165.7528 C.ar    1  UNL1        0.0028
     10 C         139.7795  140.6045  167.2370 C.ar    1  UNL1        0.0309
     11 C         139.3514  139.3167  163.5076 C.ar    1  UNL1        0.0192
     12 C         140.2200  140.2908  162.7682 C.ar    1  UNL1        0.0028
     13 C         140.3951  140.1629  161.2839 C.ar    1  UNL1        0.0165
     14 C         139.7017  139.0608  160.5391 C.ar    1  UNL1        0.0828
     15 N         138.8332  138.0867  161.2786 N.ar    1  UNL1       -0.2464
     16 C         138.6580  138.2147  162.7628 C.ar    1  UNL1        0.0985
     17 C         139.8769  138.9328  159.0549 C.3     1  UNL1        0.1962
     18 S         139.4982  140.0709  158.1542 S.O2    1  UNL1       -0.0025
     19 C         139.1195  141.2090  157.2534 C.3     1  UNL1        0.1765
     20 O         140.9398  140.2576  157.7840 O.2     1  UNL1       -0.1726
     21 O         138.0567  139.8843  158.5243 O.2     1  UNL1       -0.1726
     22 C         141.1614  142.7964  170.2431 C.2     1  UNL1        0.2455
     23 N         142.2530  142.3720  171.1802 N.am    1  UNL1       -0.3252
     24 O         140.8482  144.2527  170.0669 O.2     1  UNL1       -0.2703
     25 H         142.4585  141.4162  171.2959 H       1  UNL1        0.1453
     26 H         142.7640  143.0493  171.6797 H       1  UNL1        0.1453
     27 N         141.5118  142.5406  167.2746 N.pl3   1  UNL1       -0.3325
     28 H         141.1926  143.3919  166.8971 H       1  UNL1        0.1468
     29 C         142.9518  142.1474  167.1266 C.3     1  UNL1        0.0870
     30 C         143.5920  142.1415  165.7701 C.3     1  UNL1        0.0195
     31 C         143.3792  139.5652  165.5104 C.3     1  UNL1        0.0001
     32 C         143.4818  140.9289  164.8941 C.3     1  UNL1        0.0017
     33 C         144.3423  143.3483  165.2896 C.3     1  UNL1        0.0017
     34 C         143.6642  144.3481  164.4004 C.3     1  UNL1        0.0001
@<TRIPOS>BOND
     1    31    32    1
     2    32    30    1
     3    30    33    1
     4    33    34    1
     5    30    29    1
     6    29    27    1
     7    27     1    1
     8     1     2   ar
     9     2    22    1
    10    22    23   am
    11    22    24    2
    12     2     3   ar
    13     3     4   ar
    14     4     5   ar
    15     5     6   ar
    16     6     7   ar
    17     7     8   ar
    18     8    11    1
    19    11    12   ar
    20    12    13   ar
    21    13    14   ar
    22    14    17    1
    23    17    18    1
    24    18    19    1
    25    18    20    2
    26    18    21    2
    27    14    15   ar
    28    15    16   ar
    29     8     9   ar
    30     9    10   ar
    31    10     1   ar
    32    10     5   ar
    33    16    11   ar
    34    27    28    1
    35    23    25    1
    36    23    26    1
@<TRIPOS>MOLECULE
*****
 34 36 0 0 0
SMALL
GASTEIGER

@<TRIPOS>ATOM
      1 C         138.5308  141.6757  160.5419 C.ar    1  UNL1        0.0519
      2 C         138.4958  141.4800  159.0551 C.ar    1  UNL1        0.0853
      3 C         138.6647  140.1071  158.4751 C.ar    1  UNL1        0.1045
      4 N         138.8686  138.9297  159.3818 N.ar    1  UNL1       -0.2436
      5 C         138.9036  139.1253  160.8687 C.ar    1  UNL1        0.0825
      6 C         139.1074  137.9479  161.7754 C.ar    1  UNL1        0.0191
      7 C         139.1424  138.1435  163.2621 C.ar    1  UNL1        0.0016
      8 C         138.9735  139.5165  163.8422 C.ar    1  UNL1        0.0016
      9 C         138.7697  140.6939  162.9354 C.ar    1  UNL1        0.0028
     10 C         138.7347  140.4983  161.4487 C.ar    1  UNL1        0.0309
     11 C         139.0085  139.7121  165.3290 C.ar    1  UNL1        0.0192
     12 C         139.8368  140.8135  165.9213 C.ar    1  UNL1        0.0028
     13 C         139.8718  141.0090  167.4081 C.ar    1  UNL1        0.0165
     14 C         139.0785  140.1032  168.3026 C.ar    1  UNL1        0.0828
     15 N         138.2502  139.0017  167.7102 N.ar    1  UNL1       -0.2464
     16 C         138.2152  138.8062  166.2235 C.ar    1  UNL1        0.0985
     17 C         139.1135  140.2987  169.7894 C.3     1  UNL1        0.1962
     18 S         140.4026  140.6538  170.4690 S.O2    1  UNL1       -0.0025
     19 C         141.6919  141.0089  171.1486 C.3     1  UNL1        0.1765
     20 O         140.9685  139.3160  170.0945 O.2     1  UNL1       -0.1726
     21 O         139.8368  141.9915  170.8434 O.2     1  UNL1       -0.1726
     22 C         138.2920  142.6574  158.1483 C.2     1  UNL1        0.2455
     23 N         137.1108  142.6970  157.2246 N.am    1  UNL1       -0.3252
     24 O         139.2692  143.7952  158.1652 O.2     1  UNL1       -0.2703
     25 H         136.4694  141.9502  157.2135 H       1  UNL1        0.1453
     26 H         136.9770  143.4697  156.6294 H       1  UNL1        0.1453
     27 N         138.3619  143.0486  161.1219 N.pl3   1  UNL1       -0.3325
     28 H         137.4594  143.4134  161.2688 H       1  UNL1        0.1468
     29 C         139.5683  143.8659  161.4781 C.3     1  UNL1        0.0870
     30 C         140.0266  143.9444  162.9042 C.3     1  UNL1        0.0195
     31 C         141.9241  143.6059  164.6462 C.3     1  UNL1        0.0001
     32 C         141.3070  143.2817  163.3180 C.3     1  UNL1        0.0017
     33 C         139.2045  144.6858  163.9164 C.3     1  UNL1        0.0017
     34 C         138.0823  143.9886  164.6269 C.3     1  UNL1        0.0001
@<TRIPOS>BOND
     1    31    32    1
     2    32    30    1
     3    30    33    1
     4    33    34    1
     5    30    29    1
     6    29    27    1
     7    27     1    1
     8     1     2   ar
     9     2    22    1
    10    22    23   am
    11    22    24    2
    12     2     3   ar
    13     3     4   ar
    14     4     5   ar
    15     5     6   ar
    16     6     7   ar
    17     7     8   ar
    18     8    11    1
    19    11    12   ar
    20    12    13   ar
    21    13    14   ar
    22    14    17    1
    23    17    18    1
    24    18    19    1
    25    18    20    2
    26    18    21    2
    27    14    15   ar
    28    15    16   ar
    29     8     9   ar
    30     9    10   ar
    31    10     1   ar
    32    10     5   ar
    33    16    11   ar
    34    27    28    1
    35    23    25    1
    36    23    26    1
@<TRIPOS>MOLECULE
*****
 34 36 0 0 0
SMALL
GASTEIGER

@<TRIPOS>ATOM
      1 C         140.9293  140.6315  167.9681 C.ar    1  UNL1        0.0519
      2 C         140.9864  140.4440  169.4552 C.ar    1  UNL1        0.0853
      3 C         141.9951  139.5099  170.0552 C.ar    1  UNL1        0.1045
      4 N         142.9467  138.7633  169.1681 N.ar    1  UNL1       -0.2436
      5 C         142.8896  138.9507  167.6809 C.ar    1  UNL1        0.0825
      6 C         143.8411  138.2041  166.7938 C.ar    1  UNL1        0.0191
      7 C         143.7840  138.3915  165.3067 C.ar    1  UNL1        0.0016
      8 C         142.7754  139.3256  164.7067 C.ar    1  UNL1        0.0016
      9 C         141.8238  140.0723  165.5938 C.ar    1  UNL1        0.0028
     10 C         141.8809  139.8848  167.0809 C.ar    1  UNL1        0.0309
     11 C         142.7183  139.5131  163.2195 C.ar    1  UNL1        0.0192
     12 C         141.7441  140.4851  162.6229 C.ar    1  UNL1        0.0028
     13 C         141.6870  140.6726  161.1357 C.ar    1  UNL1        0.0165
     14 C         142.6042  139.8879  160.2451 C.ar    1  UNL1        0.0828
     15 N         143.5784  138.9158  160.8418 N.ar    1  UNL1       -0.2464
     16 C         143.6355  138.7284  162.3289 C.ar    1  UNL1        0.0985
     17 C         142.5471  140.0753  158.7580 C.3     1  UNL1        0.1962
     18 S         142.7064  138.8946  157.8467 S.O2    1  UNL1       -0.0025
     19 C         142.8657  137.7138  156.9353 C.3     1  UNL1        0.1765
     20 O         144.0415  139.4161  157.4044 O.2     1  UNL1       -0.1726
     21 O         141.3714  138.3731  158.2890 O.2     1  UNL1       -0.1726
     22 C         140.0348  141.1907  170.3424 C.2     1  UNL1        0.2455
     23 N         140.5570  142.2023  171.3191 N.am    1  UNL1       -0.3252
     24 O         138.5612  140.9258  170.2528 O.2     1  UNL1       -0.2703
     25 H         141.5242  142.3762  171.3779 H       1  UNL1        0.1453
     26 H         139.9324  142.6924  171.9014 H       1  UNL1        0.1453
     27 N         139.9206  141.5656  167.3680 N.pl3   1  UNL1       -0.3325
     28 H         138.9857  141.2769  167.2598 H       1  UNL1        0.1468
     29 C         140.3365  142.9396  166.9329 C.3     1  UNL1        0.0870
     30 C         140.3060  143.3072  165.4790 C.3     1  UNL1        0.0195
     31 C         141.7427  144.8433  163.9539 C.3     1  UNL1        0.0001
     32 C         141.5867  143.5799  164.7473 C.3     1  UNL1        0.0017
     33 C         138.9947  143.4021  164.7568 C.3     1  UNL1        0.0017
     34 C         138.0466  144.5222  165.0676 C.3     1  UNL1        0.0001
@<TRIPOS>BOND
     1    31    32    1
     2    32    30    1
     3    30    33    1
     4    33    34    1
     5    30    29    1
     6    29    27    1
     7    27     1    1
     8     1     2   ar
     9     2    22    1
    10    22    23   am
    11    22    24    2
    12     2     3   ar
    13     3     4   ar
    14     4     5   ar
    15     5     6   ar
    16     6     7   ar
    17     7     8   ar
    18     8    11    1
    19    11    12   ar
    20    12    13   ar
    21    13    14   ar
    22    14    17    1
    23    17    18    1
    24    18    19    1
    25    18    20    2
    26    18    21    2
    27    14    15   ar
    28    15    16   ar
    29     8     9   ar
    30     9    10   ar
    31    10     1   ar
    32    10     5   ar
    33    16    11   ar
    34    27    28    1
    35    23    25    1
    36    23    26    1
@<TRIPOS>MOLECULE
*****
 34 36 0 0 0
SMALL
GASTEIGER

@<TRIPOS>ATOM
      1 C         142.1722  141.2369  168.3379 C.ar    1  UNL1        0.0519
      2 C         141.9975  140.6518  169.7079 C.ar    1  UNL1        0.0853
      3 C         142.4196  139.2382  169.9792 C.ar    1  UNL1        0.1045
      4 N         143.0164  138.4097  168.8804 N.ar    1  UNL1       -0.2436
      5 C         143.1912  138.9948  167.5103 C.ar    1  UNL1        0.0825
      6 C         143.7880  138.1663  166.4115 C.ar    1  UNL1        0.0191
      7 C         143.9627  138.7514  165.0415 C.ar    1  UNL1        0.0016
      8 C         143.5406  140.1650  164.7702 C.ar    1  UNL1        0.0016
      9 C         142.9437  140.9935  165.8689 C.ar    1  UNL1        0.0028
     10 C         142.7690  140.4084  167.2390 C.ar    1  UNL1        0.0309
     11 C         143.7153  140.7501  163.4000 C.ar    1  UNL1        0.0192
     12 C         144.7402  141.8201  163.1665 C.ar    1  UNL1        0.0028
     13 C         144.9149  142.4052  161.7964 C.ar    1  UNL1        0.0165
     14 C         144.0647  141.9202  160.6598 C.ar    1  UNL1        0.0828
     15 N         143.0397  140.8501  160.8933 N.ar    1  UNL1       -0.2464
     16 C         142.8651  140.2651  162.2634 C.ar    1  UNL1        0.0985
     17 C         144.2394  142.5052  159.2897 C.3     1  UNL1        0.1962
     18 S         143.0407  142.9523  158.5067 S.O2    1  UNL1       -0.0025
     19 C         141.8419  143.3993  157.7237 C.3     1  UNL1        0.1765
     20 O         142.8115  144.0610  159.4907 O.2     1  UNL1       -0.1726
     21 O         143.2698  141.8436  157.5228 O.2     1  UNL1       -0.1726
     22 C         141.4006  141.4803  170.8068 C.2     1  UNL1        0.2455
     23 N         142.2645  142.4275  171.5857 N.am    1  UNL1       -0.3252
     24 O         139.9400  141.3616  171.1267 O.2     1  UNL1       -0.2703
     25 H         143.2232  142.5053  171.3757 H       1  UNL1        0.1453
     26 H         141.8728  142.9712  172.3069 H       1  UNL1        0.1453
     27 N         141.7501  142.6505  168.0666 N.pl3   1  UNL1       -0.3325
     28 H         142.4002  143.3842  168.1566 H       1  UNL1        0.1468
     29 C         140.3373  142.9461  167.6582 C.3     1  UNL1        0.0870
     30 C         139.9118  142.7496  166.2333 C.3     1  UNL1        0.0195
     31 C         138.8735  144.7658  164.9655 C.3     1  UNL1        0.0001
     32 C         140.0455  143.8735  165.2489 C.3     1  UNL1        0.0017
     33 C         139.3526  141.4293  165.7927 C.3     1  UNL1        0.0017
     34 C         139.5750  140.9516  164.3883 C.3     1  UNL1        0.0001
@<TRIPOS>BOND
     1    31    32    1
     2    32    30    1
     3    30    33    1
     4    33    34    1
     5    30    29    1
     6    29    27    1
     7    27     1    1
     8     1     2   ar
     9     2    22    1
    10    22    23   am
    11    22    24    2
    12     2     3   ar
    13     3     4   ar
    14     4     5   ar
    15     5     6   ar
    16     6     7   ar
    17     7     8   ar
    18     8    11    1
    19    11    12   ar
    20    12    13   ar
    21    13    14   ar
    22    14    17    1
    23    17    18    1
    24    18    19    1
    25    18    20    2
    26    18    21    2
    27    14    15   ar
    28    15    16   ar
    29     8     9   ar
    30     9    10   ar
    31    10     1   ar
    32    10     5   ar
    33    16    11   ar
    34    27    28    1
    35    23    25    1
    36    23    26    1
@<TRIPOS>MOLECULE
*****
 34 36 0 0 0
SMALL
GASTEIGER

@<TRIPOS>ATOM
      1 C         140.8461  140.5057  167.2688 C.ar    1  UNL1        0.0519
      2 C         140.8290  140.1947  168.7361 C.ar    1  UNL1        0.0853
      3 C         141.9244  139.3669  169.3401 C.ar    1  UNL1        0.1045
      4 N         143.0368  138.8499  168.4769 N.ar    1  UNL1       -0.2436
      5 C         143.0539  139.1609  167.0095 C.ar    1  UNL1        0.0825
      6 C         144.1663  138.6440  166.1462 C.ar    1  UNL1        0.0191
      7 C         144.1834  138.9549  164.6789 C.ar    1  UNL1        0.0016
      8 C         143.0881  139.7828  164.0749 C.ar    1  UNL1        0.0016
      9 C         141.9756  140.2997  164.9382 C.ar    1  UNL1        0.0028
     10 C         141.9586  139.9887  166.4055 C.ar    1  UNL1        0.0309
     11 C         143.1052  140.0937  162.6075 C.ar    1  UNL1        0.0192
     12 C         142.7341  139.0348  161.6121 C.ar    1  UNL1        0.0028
     13 C         142.7513  139.3457  160.1447 C.ar    1  UNL1        0.0165
     14 C         143.1394  140.7156  159.6729 C.ar    1  UNL1        0.0828
     15 N         143.5104  141.7746  160.6684 N.ar    1  UNL1       -0.2464
     16 C         143.4933  141.4636  162.1357 C.ar    1  UNL1        0.0985
     17 C         143.1565  141.0266  158.2056 C.3     1  UNL1        0.1962
     18 S         144.4400  141.4226  157.5379 S.O2    1  UNL1       -0.0025
     19 C         145.7235  141.8185  156.8701 C.3     1  UNL1        0.1765
     20 O         144.0236  142.8626  157.5915 O.2     1  UNL1       -0.1726
     21 O         144.8564  139.9826  157.4842 O.2     1  UNL1       -0.1726
     22 C         139.7166  140.7117  169.5994 C.2     1  UNL1        0.2455
     23 N         139.7451  142.1286  170.0909 N.am    1  UNL1       -0.3252
     24 O         138.5757  139.8117  169.9713 O.2     1  UNL1       -0.2703
     25 H         140.4940  142.7192  169.8469 H       1  UNL1        0.1453
     26 H         139.0150  142.4678  170.6576 H       1  UNL1        0.1453
     27 N         139.7508  141.3335  166.6648 N.pl3   1  UNL1       -0.3325
     28 H         139.6514  142.2795  166.9190 H       1  UNL1        0.1468
     29 C         138.8068  140.7201  165.6734 C.3     1  UNL1        0.0870
     30 C         138.4575  139.2647  165.7718 C.3     1  UNL1        0.0195
     31 C         140.0116  137.4546  164.7430 C.3     1  UNL1        0.0001
     32 C         138.7999  138.3336  164.6467 C.3     1  UNL1        0.0017
     33 C         137.7658  138.7403  166.9952 C.3     1  UNL1        0.0017
     34 C         137.2973  137.3161  167.0395 C.3     1  UNL1        0.0001
@<TRIPOS>BOND
     1    31    32    1
     2    32    30    1
     3    30    33    1
     4    33    34    1
     5    30    29    1
     6    29    27    1
     7    27     1    1
     8     1     2   ar
     9     2    22    1
    10    22    23   am
    11    22    24    2
    12     2     3   ar
    13     3     4   ar
    14     4     5   ar
    15     5     6   ar
    16     6     7   ar
    17     7     8   ar
    18     8    11    1
    19    11    12   ar
    20    12    13   ar
    21    13    14   ar
    22    14    17    1
    23    17    18    1
    24    18    19    1
    25    18    20    2
    26    18    21    2
    27    14    15   ar
    28    15    16   ar
    29     8     9   ar
    30     9    10   ar
    31    10     1   ar
    32    10     5   ar
    33    16    11   ar
    34    27    28    1
    35    23    25    1
    36    23    26    1
@<TRIPOS>MOLECULE
*****
 34 36 0 0 0
SMALL
GASTEIGER

@<TRIPOS>ATOM
      1 C         140.4327  140.0303  167.4089 C.ar    1  UNL1        0.0519
      2 C         140.4997  139.9928  168.9069 C.ar    1  UNL1        0.0853
      3 C         141.7412  139.5008  169.5900 C.ar    1  UNL1        0.1045
      4 N         142.9157  139.0464  168.7751 N.ar    1  UNL1       -0.2436
      5 C         142.8487  139.0839  167.2770 C.ar    1  UNL1        0.0825
      6 C         144.0231  138.6295  166.4621 C.ar    1  UNL1        0.0191
      7 C         143.9561  138.6671  164.9641 C.ar    1  UNL1        0.0016
      8 C         142.7145  139.1591  164.2810 C.ar    1  UNL1        0.0016
      9 C         141.5401  139.6135  165.0959 C.ar    1  UNL1        0.0028
     10 C         141.6072  139.5759  166.5939 C.ar    1  UNL1        0.0309
     11 C         142.6475  139.1966  162.7829 C.ar    1  UNL1        0.0192
     12 C         143.3799  138.1680  161.9734 C.ar    1  UNL1        0.0028
     13 C         143.3129  138.2056  160.4753 C.ar    1  UNL1        0.0165
     14 C         142.5134  139.2718  159.7868 C.ar    1  UNL1        0.0828
     15 N         141.7810  140.3005  160.5964 N.ar    1  UNL1       -0.2464
     16 C         141.8481  140.2629  162.0944 C.ar    1  UNL1        0.0985
     17 C         142.4464  139.3094  158.2888 C.3     1  UNL1        0.1962
     18 S         142.1410  138.0581  157.5201 S.O2    1  UNL1       -0.0025
     19 C         141.8356  136.8067  156.7514 C.3     1  UNL1        0.1765
     20 O         143.5462  138.0373  156.9958 O.2     1  UNL1       -0.1726
     21 O         140.7359  138.0789  158.0445 O.2     1  UNL1       -0.1726
     22 C         139.3252  140.4472  169.7219 C.2     1  UNL1        0.2455
     23 N         139.4234  141.6956  170.5477 N.am    1  UNL1       -0.3252
     24 O         138.0527  139.6532  169.7111 O.2     1  UNL1       -0.2703
     25 H         140.2587  142.2167  170.5548 H       1  UNL1        0.1453
     26 H         138.6526  141.9938  171.0826 H       1  UNL1        0.1453
     27 N         139.1912  140.5223  166.7258 N.pl3   1  UNL1       -0.3325
     28 H         138.8395  141.4189  166.9299 H       1  UNL1        0.1468
     29 C         138.4855  139.6481  165.7318 C.3     1  UNL1        0.0870
     30 C         138.3984  140.0665  164.2940 C.3     1  UNL1        0.0195
     31 C         137.3366  142.0615  163.0124 C.3     1  UNL1        0.0001
     32 C         138.3889  141.5230  163.9359 C.3     1  UNL1        0.0017
     33 C         138.3207  139.0281  163.2142 C.3     1  UNL1        0.0017
     34 C         138.9630  137.6876  163.4152 C.3     1  UNL1        0.0001
@<TRIPOS>BOND
     1    31    32    1
     2    32    30    1
     3    30    33    1
     4    33    34    1
     5    30    29    1
     6    29    27    1
     7    27     1    1
     8     1     2   ar
     9     2    22    1
    10    22    23   am
    11    22    24    2
    12     2     3   ar
    13     3     4   ar
    14     4     5   ar
    15     5     6   ar
    16     6     7   ar
    17     7     8   ar
    18     8    11    1
    19    11    12   ar
    20    12    13   ar
    21    13    14   ar
    22    14    17    1
    23    17    18    1
    24    18    19    1
    25    18    20    2
    26    18    21    2
    27    14    15   ar
    28    15    16   ar
    29     8     9   ar
    30     9    10   ar
    31    10     1   ar
    32    10     5   ar
    33    16    11   ar
    34    27    28    1
    35    23    25    1
    36    23    26    1
@<TRIPOS>MOLECULE
*****
 34 36 0 0 0
SMALL
GASTEIGER

@<TRIPOS>ATOM
      1 C         143.5143  141.7216  160.8060 C.ar    1  UNL1        0.0519
      2 C         143.9036  141.5560  159.3669 C.ar    1  UNL1        0.0853
      3 C         143.8931  140.1937  158.7391 C.ar    1  UNL1        0.1045
      4 N         143.4932  138.9971  159.5503 N.ar    1  UNL1       -0.2436
      5 C         143.1038  139.1627  160.9894 C.ar    1  UNL1        0.0825
      6 C         142.7038  137.9661  161.8006 C.ar    1  UNL1        0.0191
      7 C         142.3145  138.1317  163.2397 C.ar    1  UNL1        0.0016
      8 C         142.3250  139.4939  163.8675 C.ar    1  UNL1        0.0016
      9 C         142.7249  140.6905  163.0563 C.ar    1  UNL1        0.0028
     10 C         143.1143  140.5249  161.6172 C.ar    1  UNL1        0.0309
     11 C         141.9356  139.6595  165.3066 C.ar    1  UNL1        0.0192
     12 C         140.5389  140.0747  165.6627 C.ar    1  UNL1        0.0028
     13 C         140.1495  140.2403  167.1018 C.ar    1  UNL1        0.0165
     14 C         141.1569  139.9906  168.1848 C.ar    1  UNL1        0.0828
     15 N         142.5536  139.5753  167.8287 N.ar    1  UNL1       -0.2464
     16 C         142.9430  139.4098  166.3896 C.ar    1  UNL1        0.0985
     17 C         140.7675  140.1562  169.6239 C.3     1  UNL1        0.1962
     18 S         140.2745  141.4833  170.1195 S.O2    1  UNL1       -0.0025
     19 C         139.7815  142.8105  170.6152 C.3     1  UNL1        0.1765
     20 O         138.9064  140.9011  170.3173 O.2     1  UNL1       -0.1726
     21 O         141.6427  142.0654  169.9217 O.2     1  UNL1       -0.1726
     22 C         144.3036  142.7526  158.5556 C.2     1  UNL1        0.2455
     23 N         145.6408  142.7857  157.8769 N.am    1  UNL1       -0.3252
     24 O         143.3663  143.9162  158.4230 O.2     1  UNL1       -0.2703
     25 H         146.2560  142.0220  157.9639 H       1  UNL1        0.1453
     26 H         145.9033  143.5711  157.3445 H       1  UNL1        0.1453
     27 N         143.5248  143.0838  161.4338 N.pl3   1  UNL1       -0.3325
     28 H         144.3807  143.5194  161.6505 H       1  UNL1        0.1468
     29 C         142.2312  143.7825  161.7315 C.3     1  UNL1        0.0870
     30 C         141.9728  144.3294  163.1041 C.3     1  UNL1        0.0195
     31 C         140.4065  143.6755  165.0712 C.3     1  UNL1        0.0001
     32 C         140.5977  144.2472  163.6976 C.3     1  UNL1        0.0017
     33 C         143.0896  144.9585  163.8833 C.3     1  UNL1        0.0017
     34 C         144.0513  144.0957  164.6454 C.3     1  UNL1        0.0001
@<TRIPOS>BOND
     1    31    32    1
     2    32    30    1
     3    30    33    1
     4    33    34    1
     5    30    29    1
     6    29    27    1
     7    27     1    1
     8     1     2   ar
     9     2    22    1
    10    22    23   am
    11    22    24    2
    12     2     3   ar
    13     3     4   ar
    14     4     5   ar
    15     5     6   ar
    16     6     7   ar
    17     7     8   ar
    18     8    11    1
    19    11    12   ar
    20    12    13   ar
    21    13    14   ar
    22    14    17    1
    23    17    18    1
    24    18    19    1
    25    18    20    2
    26    18    21    2
    27    14    15   ar
    28    15    16   ar
    29     8     9   ar
    30     9    10   ar
    31    10     1   ar
    32    10     5   ar
    33    16    11   ar
    34    27    28    1
    35    23    25    1
    36    23    26    1
@<TRIPOS>MOLECULE
*****
 34 36 0 0 0
SMALL
GASTEIGER

@<TRIPOS>ATOM
      1 C         140.0727  141.8950  167.5092 C.ar    1  UNL1        0.0519
      2 C         140.0479  141.8993  169.0089 C.ar    1  UNL1        0.0853
      3 C         139.4644  140.7347  169.7527 C.ar    1  UNL1        0.1045
      4 N         138.9057  139.5658  168.9968 N.ar    1  UNL1       -0.2436
      5 C         138.9305  139.5615  167.4970 C.ar    1  UNL1        0.0825
      6 C         138.3718  138.3926  166.7411 C.ar    1  UNL1        0.0191
      7 C         138.3966  138.3883  165.2413 C.ar    1  UNL1        0.0016
      8 C         138.9801  139.5528  164.4975 C.ar    1  UNL1        0.0016
      9 C         139.5388  140.7217  165.2534 C.ar    1  UNL1        0.0028
     10 C         139.5140  140.7261  166.7531 C.ar    1  UNL1        0.0309
     11 C         139.0049  139.5485  162.9976 C.ar    1  UNL1        0.0192
     12 C         140.2599  139.1686  162.2694 C.ar    1  UNL1        0.0028
     13 C         140.2847  139.1642  160.7695 C.ar    1  UNL1        0.0165
     14 C         139.0544  139.5398  159.9980 C.ar    1  UNL1        0.0828
     15 N         137.7993  139.9197  160.7264 N.ar    1  UNL1       -0.2464
     16 C         137.7745  139.9240  162.2261 C.ar    1  UNL1        0.0985
     17 C         139.0791  139.5354  158.4983 C.3     1  UNL1        0.1962
     18 S         138.7788  140.7940  157.7396 S.O2    1  UNL1       -0.0025
     19 C         138.4785  142.0528  156.9809 C.3     1  UNL1        0.1765
     20 O         137.4162  140.2654  157.4020 O.2     1  UNL1       -0.1726
     21 O         140.1413  141.3226  158.0772 O.2     1  UNL1       -0.1726
     22 C         140.6067  143.0683  169.7649 C.2     1  UNL1        0.2455
     23 N         141.7843  142.8794  170.6746 N.am    1  UNL1       -0.3252
     24 O         139.9878  144.4259  169.6112 O.2     1  UNL1       -0.2703
     25 H         142.1905  141.9883  170.7755 H       1  UNL1        0.1453
     26 H         142.1510  143.6466  171.1708 H       1  UNL1        0.1453
     27 N         140.6562  143.0596  166.7653 N.pl3   1  UNL1       -0.3325
     28 H         141.6327  143.1786  166.7250 H       1  UNL1        0.1468
     29 C         139.7520  144.0428  166.0829 C.3     1  UNL1        0.0870
     30 C         139.8839  144.2849  164.6084 C.3     1  UNL1        0.0195
     31 C         137.7423  143.4752  163.3804 C.3     1  UNL1        0.0001
     32 C         138.6661  144.5853  163.7858 C.3     1  UNL1        0.0017
     33 C         141.2336  144.2266  163.9566 C.3     1  UNL1        0.0017
     34 C         141.5463  145.1260  162.7977 C.3     1  UNL1        0.0001
@<TRIPOS>BOND
     1    31    32    1
     2    32    30    1
     3    30    33    1
     4    33    34    1
     5    30    29    1
     6    29    27    1
     7    27     1    1
     8     1     2   ar
     9     2    22    1
    10    22    23   am
    11    22    24    2
    12     2     3   ar
    13     3     4   ar
    14     4     5   ar
    15     5     6   ar
    16     6     7   ar
    17     7     8   ar
    18     8    11    1
    19    11    12   ar
    20    12    13   ar
    21    13    14   ar
    22    14    17    1
    23    17    18    1
    24    18    19    1
    25    18    20    2
    26    18    21    2
    27    14    15   ar
    28    15    16   ar
    29     8     9   ar
    30     9    10   ar
    31    10     1   ar
    32    10     5   ar
    33    16    11   ar
    34    27    28    1
    35    23    25    1
    36    23    26    1
