@<TRIPOS>MOLECULE
*****
 34 38 0 0 0
SMALL
GASTEIGER

@<TRIPOS>ATOM
      1 N         137.3186  140.6502  163.6007 N.pl3   1  UNL1       -0.2802
      2 H         136.3714  140.9157  163.6399 H       1  UNL1        0.1552
      3 C         137.9360  140.2657  162.2888 C.ar    1  UNL1        0.2208
      4 N         138.4713  138.8787  162.0897 N.ar    1  UNL1       -0.2111
      5 C         139.0887  138.4942  160.7779 C.ar    1  UNL1        0.1147
      6 C         139.1707  139.4967  159.6651 C.ar    1  UNL1        0.0960
      7 CL        139.7881  139.1122  158.3532 Cl      1  UNL1       -0.0790
      8 C         138.6353  140.8838  159.8642 C.ar    1  UNL1        0.1138
      9 N         138.0180  141.2682  161.1760 N.ar    1  UNL1       -0.2111
     10 C         138.7173  141.8863  158.7514 C.ar    1  UNL1        0.1031
     11 C         139.7021  143.0132  158.6508 C.ar    1  UNL1        0.1196
     12 N         139.4223  143.7612  157.3810 N.ar    1  UNL1       -0.2248
     13 C         138.2646  143.0965  156.6969 C.ar    1  UNL1        0.1479
     14 C         137.5509  143.3967  155.4122 C.ar    1  UNL1        0.0374
     15 C         136.4016  142.5382  154.9745 C.ar    1  UNL1        0.0046
     16 C         135.9658  141.3793  155.8214 C.ar    1  UNL1        0.0191
     17 C         136.6795  141.0791  157.1061 C.ar    1  UNL1        0.0815
     18 N         137.8289  141.9377  157.5438 N.ar    1  UNL1       -0.2874
     19 C         139.0146  141.8026  165.1961 C.ar    1  UNL1        0.1533
     20 C         139.8404  141.7824  166.4483 C.ar    1  UNL1        0.0527
     21 C         139.7958  140.5899  167.3570 C.ar    1  UNL1        0.0514
     22 C         138.9254  139.4174  167.0137 C.ar    1  UNL1        0.0160
     23 C         138.0997  139.4376  165.7615 C.ar    1  UNL1        0.0190
     24 C         138.1443  140.6301  164.8527 C.ar    1  UNL1        0.0850
     25 N         140.6215  140.5698  168.6091 N.pl3   1  UNL1       -0.2980
     26 C         141.8719  139.7435  168.6696 C.3     1  UNL1        0.1124
     27 C         142.6977  139.7234  169.9218 C.3     1  UNL1        0.1109
     28 N         142.2731  140.5296  171.1132 N.am    1  UNL1       -0.3013
     29 C         141.0226  141.3559  171.0527 C.2     1  UNL1        0.2428
     30 O         140.5980  142.1621  172.2442 O.2     1  UNL1       -0.2732
     31 C         140.1969  141.3760  169.8006 C.3     1  UNL1        0.1771
     32 H         142.8150  140.5164  171.9350 H       1  UNL1        0.1495
     33 C         138.0503  144.0942  164.4422 C.3     1  UNL1        0.2525
     34 O         139.0593  142.9951  164.2874 O.3     1  UNL1       -0.4701
@<TRIPOS>BOND
     1    33    34    1
     2    34    19    1
     3    19    20   ar
     4    20    21   ar
     5    21    25    1
     6    25    26    1
     7    26    27    1
     8    27    28    1
     9    28    29   am
    10    29    30    2
    11    29    31    1
    12    21    22   ar
    13    22    23   ar
    14    23    24   ar
    15    24     1    1
    16     1     3    1
    17     3     4   ar
    18     4     5   ar
    19     5     6   ar
    20     6     7    1
    21     6     8   ar
    22     8    10    1
    23    10    11   ar
    24    11    12   ar
    25    12    13   ar
    26    13    14   ar
    27    14    15   ar
    28    15    16   ar
    29    16    17   ar
    30    17    18   ar
    31     8     9   ar
    32    24    19   ar
    33     9     3   ar
    34    31    25    1
    35    18    10   ar
    36    18    13   ar
    37    28    32    1
    38     1     2    1
@<TRIPOS>MOLECULE
*****
 34 38 0 0 0
SMALL
GASTEIGER

@<TRIPOS>ATOM
      1 N         141.5468  137.6962  163.8307 N.pl3   1  UNL1       -0.2802
      2 H         141.5955  136.7133  163.8562 H       1  UNL1        0.1552
      3 C         141.6475  138.4184  162.5198 C.ar    1  UNL1        0.2208
      4 N         141.6843  137.6421  161.2369 N.ar    1  UNL1       -0.2111
      5 C         141.7849  138.3642  159.9260 C.ar    1  UNL1        0.1147
      6 C         141.8488  139.8626  159.8981 C.ar    1  UNL1        0.0960
      7 CL        141.9495  140.5848  158.5873 Cl      1  UNL1       -0.0790
      8 C         141.8120  140.6389  161.1812 C.ar    1  UNL1        0.1138
      9 N         141.7114  139.9167  162.4920 N.ar    1  UNL1       -0.2111
     10 C         141.8759  142.1373  161.1533 C.ar    1  UNL1        0.1031
     11 C         143.0203  142.9616  160.6426 C.ar    1  UNL1        0.1196
     12 N         142.6582  144.4082  160.8049 N.ar    1  UNL1       -0.2248
     13 C         141.2901  144.4779  161.4160 C.ar    1  UNL1        0.1479
     14 C         140.4221  145.6380  161.8041 C.ar    1  UNL1        0.0374
     15 C         139.0706  145.3946  162.4075 C.ar    1  UNL1        0.0046
     16 C         138.5871  143.9911  162.6229 C.ar    1  UNL1        0.0191
     17 C         139.4551  142.8310  162.2347 C.ar    1  UNL1        0.0815
     18 N         140.8066  143.0744  161.6313 N.ar    1  UNL1       -0.2874
     19 C         140.0071  138.9369  165.5159 C.ar    1  UNL1        0.1533
     20 C         139.8322  139.7124  166.7880 C.ar    1  UNL1        0.0527
     21 C         141.0223  140.0226  167.6469 C.ar    1  UNL1        0.0514
     22 C         142.3871  139.5573  167.2337 C.ar    1  UNL1        0.0160
     23 C         142.5619  138.7819  165.9616 C.ar    1  UNL1        0.0190
     24 C         141.3719  138.4716  165.1027 C.ar    1  UNL1        0.0850
     25 N         140.8474  140.7980  168.9189 N.pl3   1  UNL1       -0.2980
     26 C         140.9588  140.1019  170.2429 C.3     1  UNL1        0.1124
     27 C         140.7839  140.8773  171.5150 C.3     1  UNL1        0.1109
     28 N         140.4976  142.3487  171.4630 N.am    1  UNL1       -0.3013
     29 C         140.3862  143.0449  170.1390 C.2     1  UNL1        0.2428
     30 O         140.0998  144.5164  170.0871 O.2     1  UNL1       -0.2732
     31 C         140.5610  142.2695  168.8670 C.3     1  UNL1        0.1771
     32 H         140.3828  142.8576  172.2979 H       1  UNL1        0.1495
     33 C         138.2711  139.6692  163.7270 C.3     1  UNL1        0.2525
     34 O         138.8170  138.6267  164.6571 O.3     1  UNL1       -0.4701
@<TRIPOS>BOND
     1    33    34    1
     2    34    19    1
     3    19    20   ar
     4    20    21   ar
     5    21    25    1
     6    25    26    1
     7    26    27    1
     8    27    28    1
     9    28    29   am
    10    29    30    2
    11    29    31    1
    12    21    22   ar
    13    22    23   ar
    14    23    24   ar
    15    24     1    1
    16     1     3    1
    17     3     4   ar
    18     4     5   ar
    19     5     6   ar
    20     6     7    1
    21     6     8   ar
    22     8    10    1
    23    10    11   ar
    24    11    12   ar
    25    12    13   ar
    26    13    14   ar
    27    14    15   ar
    28    15    16   ar
    29    16    17   ar
    30    17    18   ar
    31     8     9   ar
    32    24    19   ar
    33     9     3   ar
    34    31    25    1
    35    18    10   ar
    36    18    13   ar
    37    28    32    1
    38     1     2    1
@<TRIPOS>MOLECULE
*****
 34 38 0 0 0
SMALL
GASTEIGER

@<TRIPOS>ATOM
      1 N         137.3066  140.5898  163.6500 N.pl3   1  UNL1       -0.2802
      2 H         136.3812  140.9253  163.6681 H       1  UNL1        0.1552
      3 C         137.8961  140.0845  162.3666 C.ar    1  UNL1        0.2208
      4 N         138.5583  138.7393  162.3238 N.ar    1  UNL1       -0.2111
      5 C         139.1478  138.2341  161.0403 C.ar    1  UNL1        0.1147
      6 C         139.0751  139.0740  159.7997 C.ar    1  UNL1        0.0960
      7 CL        139.6646  138.5688  158.5163 Cl      1  UNL1       -0.0790
      8 C         138.4129  140.4193  159.8425 C.ar    1  UNL1        0.1138
      9 N         137.8234  140.9245  161.1259 N.ar    1  UNL1       -0.2111
     10 C         138.3402  141.2593  158.6019 C.ar    1  UNL1        0.1031
     11 C         137.5664  140.9316  157.3593 C.ar    1  UNL1        0.1196
     12 N         137.7766  142.0443  156.3755 N.ar    1  UNL1       -0.2248
     13 C         138.6802  143.0596  157.0101 C.ar    1  UNL1        0.1479
     14 C         139.2308  144.3632  156.5127 C.ar    1  UNL1        0.0374
     15 C         140.1297  145.1817  157.3913 C.ar    1  UNL1        0.0046
     16 C         140.4780  144.6965  158.7673 C.ar    1  UNL1        0.0191
     17 C         139.9274  143.3929  159.2646 C.ar    1  UNL1        0.0815
     18 N         139.0285  142.5745  158.3860 N.ar    1  UNL1       -0.2874
     19 C         139.0365  141.7364  165.2129 C.ar    1  UNL1        0.1533
     20 C         139.8569  141.7304  166.4688 C.ar    1  UNL1        0.0527
     21 C         139.7676  140.5719  167.4174 C.ar    1  UNL1        0.0514
     22 C         138.8581  139.4193  167.1102 C.ar    1  UNL1        0.0160
     23 C         138.0378  139.4254  165.8544 C.ar    1  UNL1        0.0190
     24 C         138.1269  140.5839  164.9057 C.ar    1  UNL1        0.0850
     25 N         140.5880  140.5660  168.6731 N.pl3   1  UNL1       -0.2980
     26 C         141.8355  139.7365  168.7500 C.3     1  UNL1        0.1124
     27 C         142.6559  139.7306  170.0058 C.3     1  UNL1        0.1109
     28 N         142.2288  140.5540  171.1845 N.am    1  UNL1       -0.3013
     29 C         140.9814  141.3834  171.1076 C.2     1  UNL1        0.2428
     30 O         140.5543  142.2068  172.2864 O.2     1  UNL1       -0.2732
     31 C         140.1610  141.3894  169.8519 C.3     1  UNL1        0.1771
     32 H         142.7673  140.5501  172.0087 H       1  UNL1        0.1495
     33 C         138.1690  144.0433  164.3908 C.3     1  UNL1        0.2525
     34 O         139.1257  142.8949  164.2643 O.3     1  UNL1       -0.4701
@<TRIPOS>BOND
     1    33    34    1
     2    34    19    1
     3    19    20   ar
     4    20    21   ar
     5    21    25    1
     6    25    26    1
     7    26    27    1
     8    27    28    1
     9    28    29   am
    10    29    30    2
    11    29    31    1
    12    21    22   ar
    13    22    23   ar
    14    23    24   ar
    15    24     1    1
    16     1     3    1
    17     3     4   ar
    18     4     5   ar
    19     5     6   ar
    20     6     7    1
    21     6     8   ar
    22     8    10    1
    23    10    11   ar
    24    11    12   ar
    25    12    13   ar
    26    13    14   ar
    27    14    15   ar
    28    15    16   ar
    29    16    17   ar
    30    17    18   ar
    31     8     9   ar
    32    24    19   ar
    33     9     3   ar
    34    31    25    1
    35    18    10   ar
    36    18    13   ar
    37    28    32    1
    38     1     2    1
@<TRIPOS>MOLECULE
*****
 34 38 0 0 0
SMALL
GASTEIGER

@<TRIPOS>ATOM
      1 N         141.3751  137.7233  163.8372 N.pl3   1  UNL1       -0.2802
      2 H         141.3604  136.7392  163.8603 H       1  UNL1        0.1552
      3 C         141.5468  138.4404  162.5310 C.ar    1  UNL1        0.2208
      4 N         141.6585  137.6589  161.2555 N.ar    1  UNL1       -0.2111
      5 C         141.8302  138.3759  159.9492 C.ar    1  UNL1        0.1147
      6 C         141.8901  139.8744  159.9184 C.ar    1  UNL1        0.0960
      7 CL        142.0617  140.5914  158.6121 Cl      1  UNL1       -0.0790
      8 C         141.7783  140.6559  161.1939 C.ar    1  UNL1        0.1138
      9 N         141.6067  139.9388  162.5001 N.ar    1  UNL1       -0.2111
     10 C         141.8382  142.1544  161.1631 C.ar    1  UNL1        0.1031
     11 C         142.9791  142.9807  160.6477 C.ar    1  UNL1        0.1196
     12 N         142.6137  144.4267  160.8083 N.ar    1  UNL1       -0.2248
     13 C         141.2470  144.4939  161.4230 C.ar    1  UNL1        0.1479
     14 C         140.3771  145.6525  161.8113 C.ar    1  UNL1        0.0374
     15 C         139.0279  145.4067  162.4189 C.ar    1  UNL1        0.0046
     16 C         138.5486  144.0024  162.6381 C.ar    1  UNL1        0.0191
     17 C         139.4186  142.8438  162.2498 C.ar    1  UNL1        0.0815
     18 N         140.7677  143.0896  161.6422 N.ar    1  UNL1       -0.2874
     19 C         142.4405  138.8849  165.9026 C.ar    1  UNL1        0.1533
     20 C         142.2911  139.6673  167.1738 C.ar    1  UNL1        0.0527
     21 C         140.9272  140.0703  167.6505 C.ar    1  UNL1        0.0514
     22 C         139.7126  139.6911  166.8562 C.ar    1  UNL1        0.0160
     23 C         139.8620  138.9088  165.5851 C.ar    1  UNL1        0.0190
     24 C         141.2259  138.5056  165.1083 C.ar    1  UNL1        0.0850
     25 N         140.7779  140.8526  168.9216 N.pl3   1  UNL1       -0.2980
     26 C         140.8931  140.1594  170.2468 C.3     1  UNL1        0.1124
     27 C         140.7438  140.9417  171.5180 C.3     1  UNL1        0.1109
     28 N         140.4795  142.4171  171.4639 N.am    1  UNL1       -0.3013
     29 C         140.3643  143.1104  170.1387 C.2     1  UNL1        0.2428
     30 O         140.0999  144.5859  170.0846 O.2     1  UNL1       -0.2732
     31 C         140.5136  142.3282  168.8676 C.3     1  UNL1        0.1771
     32 H         140.3815  142.9306  172.2982 H       1  UNL1        0.1495
     33 C         144.6104  139.4208  164.5781 C.3     1  UNL1        0.2525
     34 O         143.8044  138.4818  165.4259 O.3     1  UNL1       -0.4701
@<TRIPOS>BOND
     1    33    34    1
     2    34    19    1
     3    19    20   ar
     4    20    21   ar
     5    21    25    1
     6    25    26    1
     7    26    27    1
     8    27    28    1
     9    28    29   am
    10    29    30    2
    11    29    31    1
    12    21    22   ar
    13    22    23   ar
    14    23    24   ar
    15    24     1    1
    16     1     3    1
    17     3     4   ar
    18     4     5   ar
    19     5     6   ar
    20     6     7    1
    21     6     8   ar
    22     8    10    1
    23    10    11   ar
    24    11    12   ar
    25    12    13   ar
    26    13    14   ar
    27    14    15   ar
    28    15    16   ar
    29    16    17   ar
    30    17    18   ar
    31     8     9   ar
    32    24    19   ar
    33     9     3   ar
    34    31    25    1
    35    18    10   ar
    36    18    13   ar
    37    28    32    1
    38     1     2    1
@<TRIPOS>MOLECULE
*****
 34 38 0 0 0
SMALL
GASTEIGER

@<TRIPOS>ATOM
      1 N         137.5405  140.7280  163.5465 N.pl3   1  UNL1       -0.2802
      2 H         136.5753  140.5341  163.5457 H       1  UNL1        0.1552
      3 C         138.2400  141.0597  162.2617 C.ar    1  UNL1        0.2208
      4 N         137.8214  142.2621  161.4687 N.ar    1  UNL1       -0.2111
      5 C         138.5208  142.5938  160.1839 C.ar    1  UNL1        0.1147
      6 C         139.6389  141.7232  159.6922 C.ar    1  UNL1        0.0960
      7 CL        140.3384  142.0549  158.4074 Cl      1  UNL1       -0.0790
      8 C         140.0576  140.5207  160.4853 C.ar    1  UNL1        0.1138
      9 N         139.3581  140.1891  161.7700 N.ar    1  UNL1       -0.2111
     10 C         141.1757  139.6501  159.9936 C.ar    1  UNL1        0.1031
     11 C         142.5482  139.5561  160.5913 C.ar    1  UNL1        0.1196
     12 N         143.3383  138.5685  159.7849 N.ar    1  UNL1       -0.2248
     13 C         142.4542  138.0521  158.6888 C.ar    1  UNL1        0.1479
     14 C         142.6934  137.0595  157.5899 C.ar    1  UNL1        0.0374
     15 C         141.5961  136.7355  156.6200 C.ar    1  UNL1        0.0046
     16 C         140.2595  137.4039  156.7489 C.ar    1  UNL1        0.0191
     17 C         140.0202  138.3965  157.8478 C.ar    1  UNL1        0.0815
     18 N         141.1176  138.7205  158.8177 N.ar    1  UNL1       -0.2874
     19 C         139.1208  141.8815  165.2559 C.ar    1  UNL1        0.1533
     20 C         139.8919  141.8451  166.5421 C.ar    1  UNL1        0.0527
     21 C         139.8538  140.6186  167.4049 C.ar    1  UNL1        0.0514
     22 C         139.0446  139.4286  166.9816 C.ar    1  UNL1        0.0160
     23 C         138.2736  139.4651  165.6955 C.ar    1  UNL1        0.0190
     24 C         138.3116  140.6916  164.8326 C.ar    1  UNL1        0.0850
     25 N         140.6249  140.5822  168.6910 N.pl3   1  UNL1       -0.2980
     26 C         141.8401  139.7113  168.8124 C.3     1  UNL1        0.1124
     27 C         142.6113  139.6748  170.0986 C.3     1  UNL1        0.1109
     28 N         142.1672  140.5093  171.2631 N.am    1  UNL1       -0.3013
     29 C         140.9520  141.3803  171.1417 C.2     1  UNL1        0.2428
     30 O         140.5079  142.2147  172.3064 O.2     1  UNL1       -0.2732
     31 C         140.1808  141.4167  169.8556 C.3     1  UNL1        0.1771
     32 H         142.6733  140.4854  172.1072 H       1  UNL1        0.1495
     33 C         138.1371  144.1898  164.5819 C.3     1  UNL1        0.2525
     34 O         139.1589  143.1080  164.3932 O.3     1  UNL1       -0.4701
@<TRIPOS>BOND
     1    33    34    1
     2    34    19    1
     3    19    20   ar
     4    20    21   ar
     5    21    25    1
     6    25    26    1
     7    26    27    1
     8    27    28    1
     9    28    29   am
    10    29    30    2
    11    29    31    1
    12    21    22   ar
    13    22    23   ar
    14    23    24   ar
    15    24     1    1
    16     1     3    1
    17     3     4   ar
    18     4     5   ar
    19     5     6   ar
    20     6     7    1
    21     6     8   ar
    22     8    10    1
    23    10    11   ar
    24    11    12   ar
    25    12    13   ar
    26    13    14   ar
    27    14    15   ar
    28    15    16   ar
    29    16    17   ar
    30    17    18   ar
    31     8     9   ar
    32    24    19   ar
    33     9     3   ar
    34    31    25    1
    35    18    10   ar
    36    18    13   ar
    37    28    32    1
    38     1     2    1
@<TRIPOS>MOLECULE
*****
 34 38 0 0 0
SMALL
GASTEIGER

@<TRIPOS>ATOM
      1 N         139.2794  137.8649  164.1410 N.pl3   1  UNL1       -0.2802
      2 H         139.1349  136.8942  164.2189 H       1  UNL1        0.1552
      3 C         138.9396  138.5737  162.8634 C.ar    1  UNL1        0.2208
      4 N         137.8240  138.0667  161.9984 N.ar    1  UNL1       -0.2111
      5 C         137.4842  138.7755  160.7208 C.ar    1  UNL1        0.1147
      6 C         138.2601  139.9911  160.3083 C.ar    1  UNL1        0.0960
      7 CL        137.9203  140.6999  159.0307 Cl      1  UNL1       -0.0790
      8 C         139.3758  140.4981  161.1734 C.ar    1  UNL1        0.1138
      9 N         139.7155  139.7893  162.4509 N.ar    1  UNL1       -0.2111
     10 C         140.1517  141.7137  160.7608 C.ar    1  UNL1        0.1031
     11 C         141.2676  141.7495  159.7591 C.ar    1  UNL1        0.1196
     12 N         141.7534  143.1649  159.6568 N.ar    1  UNL1       -0.2248
     13 C         140.9378  144.0040  160.5953 C.ar    1  UNL1        0.1479
     14 C         140.9687  145.4688  160.9168 C.ar    1  UNL1        0.0374
     15 C         140.0096  146.0366  161.9205 C.ar    1  UNL1        0.0046
     16 C         139.0197  145.1397  162.6029 C.ar    1  UNL1        0.0191
     17 C         138.9888  143.6749  162.2815 C.ar    1  UNL1        0.0815
     18 N         139.9479  143.1071  161.2777 N.ar    1  UNL1       -0.2874
     19 C         141.3218  138.6818  165.5235 C.ar    1  UNL1        0.1533
     20 C         141.8817  139.4521  166.6826 C.ar    1  UNL1        0.0527
     21 C         140.9590  140.1756  167.6181 C.ar    1  UNL1        0.0514
     22 C         139.4765  140.1289  167.3946 C.ar    1  UNL1        0.0160
     23 C         138.9166  139.3587  166.2356 C.ar    1  UNL1        0.0190
     24 C         139.8393  138.6351  165.3000 C.ar    1  UNL1        0.0850
     25 N         141.5189  140.9458  168.7771 N.pl3   1  UNL1       -0.2980
     26 C         142.9280  141.4575  168.7268 C.3     1  UNL1        0.1124
     27 C         143.4880  142.2277  169.8859 C.3     1  UNL1        0.1109
     28 N         142.6389  142.4862  171.0949 N.am    1  UNL1       -0.3013
     29 C         141.2297  141.9745  171.1452 C.2     1  UNL1        0.2428
     30 O         140.3806  142.2331  172.3543 O.2     1  UNL1       -0.2732
     31 C         140.6697  141.2043  169.9862 C.3     1  UNL1        0.1771
     32 H         143.0064  142.9917  171.8556 H       1  UNL1        0.1495
     33 C         143.0267  138.7255  163.5635 C.3     1  UNL1        0.2525
     34 O         142.2445  137.9583  164.5880 O.3     1  UNL1       -0.4701
@<TRIPOS>BOND
     1    33    34    1
     2    34    19    1
     3    19    20   ar
     4    20    21   ar
     5    21    25    1
     6    25    26    1
     7    26    27    1
     8    27    28    1
     9    28    29   am
    10    29    30    2
    11    29    31    1
    12    21    22   ar
    13    22    23   ar
    14    23    24   ar
    15    24     1    1
    16     1     3    1
    17     3     4   ar
    18     4     5   ar
    19     5     6   ar
    20     6     7    1
    21     6     8   ar
    22     8    10    1
    23    10    11   ar
    24    11    12   ar
    25    12    13   ar
    26    13    14   ar
    27    14    15   ar
    28    15    16   ar
    29    16    17   ar
    30    17    18   ar
    31     8     9   ar
    32    24    19   ar
    33     9     3   ar
    34    31    25    1
    35    18    10   ar
    36    18    13   ar
    37    28    32    1
    38     1     2    1
@<TRIPOS>MOLECULE
*****
 34 38 0 0 0
SMALL
GASTEIGER

@<TRIPOS>ATOM
      1 N         141.8538  137.3291  163.7669 N.pl3   1  UNL1       -0.2802
      2 H         141.7198  136.3543  163.8004 H       1  UNL1        0.1552
      3 C         142.2886  137.9828  162.4888 C.ar    1  UNL1        0.2208
      4 N         143.5479  138.7970  162.4534 N.ar    1  UNL1       -0.2111
      5 C         143.9827  139.4507  161.1753 C.ar    1  UNL1        0.1147
      6 C         143.1581  139.2903  159.9326 C.ar    1  UNL1        0.0960
      7 CL        143.5929  139.9441  158.6545 Cl      1  UNL1       -0.0790
      8 C         141.8988  138.4761  159.9679 C.ar    1  UNL1        0.1138
      9 N         141.4641  137.8224  161.2460 N.ar    1  UNL1       -0.2111
     10 C         141.0742  138.3157  158.7252 C.ar    1  UNL1        0.1031
     11 C         139.7308  138.9333  158.4726 C.ar    1  UNL1        0.1196
     12 N         139.2747  138.5088  157.1081 N.ar    1  UNL1       -0.2248
     13 C         140.3362  137.6288  156.5174 C.ar    1  UNL1        0.1479
     14 C         140.4338  136.9209  155.1987 C.ar    1  UNL1        0.0374
     15 C         141.6435  136.0935  154.8793 C.ar    1  UNL1        0.0046
     16 C         142.7557  135.9742  155.8787 C.ar    1  UNL1        0.0191
     17 C         142.6582  136.6822  157.1975 C.ar    1  UNL1        0.0815
     18 N         141.4484  137.5095  157.5168 N.ar    1  UNL1       -0.2874
     19 C         140.2472  138.6679  165.3084 C.ar    1  UNL1        0.1533
     20 C         140.0167  139.4993  166.5356 C.ar    1  UNL1        0.0527
     21 C         141.1623  139.8231  167.4482 C.ar    1  UNL1        0.0514
     22 C         142.5383  139.3155  167.1337 C.ar    1  UNL1        0.0160
     23 C         142.7688  138.4842  165.9066 C.ar    1  UNL1        0.0190
     24 C         141.6233  138.1604  164.9939 C.ar    1  UNL1        0.0850
     25 N         140.9317  140.6544  168.6752 N.pl3   1  UNL1       -0.2980
     26 C         141.0277  140.0276  170.0346 C.3     1  UNL1        0.1124
     27 C         140.7972  140.8589  171.2618 C.3     1  UNL1        0.1109
     28 N         140.4706  142.3169  171.1295 N.am    1  UNL1       -0.3013
     29 C         140.3747  142.9437  169.7701 C.2     1  UNL1        0.2428
     30 O         140.0481  144.4017  169.6378 O.2     1  UNL1       -0.2732
     31 C         140.6052  142.1124  168.5430 C.3     1  UNL1        0.1771
     32 H         140.3193  142.8625  171.9349 H       1  UNL1        0.1495
     33 C         138.7442  139.2803  163.2796 C.3     1  UNL1        0.2525
     34 O         139.1017  138.3441  164.3958 O.3     1  UNL1       -0.4701
@<TRIPOS>BOND
     1    33    34    1
     2    34    19    1
     3    19    20   ar
     4    20    21   ar
     5    21    25    1
     6    25    26    1
     7    26    27    1
     8    27    28    1
     9    28    29   am
    10    29    30    2
    11    29    31    1
    12    21    22   ar
    13    22    23   ar
    14    23    24   ar
    15    24     1    1
    16     1     3    1
    17     3     4   ar
    18     4     5   ar
    19     5     6   ar
    20     6     7    1
    21     6     8   ar
    22     8    10    1
    23    10    11   ar
    24    11    12   ar
    25    12    13   ar
    26    13    14   ar
    27    14    15   ar
    28    15    16   ar
    29    16    17   ar
    30    17    18   ar
    31     8     9   ar
    32    24    19   ar
    33     9     3   ar
    34    31    25    1
    35    18    10   ar
    36    18    13   ar
    37    28    32    1
    38     1     2    1
@<TRIPOS>MOLECULE
*****
 34 38 0 0 0
SMALL
GASTEIGER

@<TRIPOS>ATOM
      1 N         139.6287  137.5088  163.8279 N.pl3   1  UNL1       -0.2802
      2 H         139.6240  136.5252  163.8697 H       1  UNL1        0.1552
      3 C         139.4652  138.2041  162.5088 C.ar    1  UNL1        0.2208
      4 N         138.1302  138.7647  162.1170 N.ar    1  UNL1       -0.2111
      5 C         137.9667  139.4599  160.7980 C.ar    1  UNL1        0.1147
      6 C         139.1381  139.5946  159.8708 C.ar    1  UNL1        0.0960
      7 CL        138.9745  140.2899  158.5518 Cl      1  UNL1       -0.0790
      8 C         140.4731  139.0340  160.2627 C.ar    1  UNL1        0.1138
      9 N         140.6366  138.3388  161.5817 N.ar    1  UNL1       -0.2111
     10 C         141.6446  139.1687  159.3355 C.ar    1  UNL1        0.1031
     11 C         142.1875  138.0955  158.4392 C.ar    1  UNL1        0.1196
     12 N         143.3572  138.6638  157.6916 N.ar    1  UNL1       -0.2248
     13 C         143.5372  140.0882  158.1260 C.ar    1  UNL1        0.1479
     14 C         144.5281  141.1414  157.7276 C.ar    1  UNL1        0.0374
     15 C         144.4606  142.5067  158.3453 C.ar    1  UNL1        0.0046
     16 C         143.4021  142.8187  159.3613 C.ar    1  UNL1        0.0191
     17 C         142.4112  141.7655  159.7596 C.ar    1  UNL1        0.0815
     18 N         142.4787  140.4003  159.1420 N.ar    1  UNL1       -0.2874
     19 C         141.1621  138.7913  165.4873 C.ar    1  UNL1        0.1533
     20 C         141.3328  139.5947  166.7427 C.ar    1  UNL1        0.0527
     21 C         140.1407  139.9186  167.5936 C.ar    1  UNL1        0.0514
     22 C         138.7781  139.4394  167.1893 C.ar    1  UNL1        0.0160
     23 C         138.6074  138.6361  165.9341 C.ar    1  UNL1        0.0190
     24 C         139.7994  138.3121  165.0831 C.ar    1  UNL1        0.0850
     25 N         140.3114  140.7219  168.8488 N.pl3   1  UNL1       -0.2980
     26 C         140.6512  140.0351  170.1383 C.3     1  UNL1        0.1124
     27 C         140.8219  140.8383  171.3937 C.3     1  UNL1        0.1109
     28 N         140.6529  142.3283  171.3593 N.am    1  UNL1       -0.3013
     29 C         140.3132  143.0151  170.0698 C.2     1  UNL1        0.2428
     30 O         140.1442  144.5052  170.0356 O.2     1  UNL1       -0.2732
     31 C         140.1425  142.2120  168.8146 C.3     1  UNL1        0.1771
     32 H         140.7650  142.8555  172.1832 H       1  UNL1        0.1495
     33 C         143.6815  139.0997  164.9330 C.3     1  UNL1        0.2525
     34 O         142.3541  138.4673  164.6364 O.3     1  UNL1       -0.4701
@<TRIPOS>BOND
     1    33    34    1
     2    34    19    1
     3    19    20   ar
     4    20    21   ar
     5    21    25    1
     6    25    26    1
     7    26    27    1
     8    27    28    1
     9    28    29   am
    10    29    30    2
    11    29    31    1
    12    21    22   ar
    13    22    23   ar
    14    23    24   ar
    15    24     1    1
    16     1     3    1
    17     3     4   ar
    18     4     5   ar
    19     5     6   ar
    20     6     7    1
    21     6     8   ar
    22     8    10    1
    23    10    11   ar
    24    11    12   ar
    25    12    13   ar
    26    13    14   ar
    27    14    15   ar
    28    15    16   ar
    29    16    17   ar
    30    17    18   ar
    31     8     9   ar
    32    24    19   ar
    33     9     3   ar
    34    31    25    1
    35    18    10   ar
    36    18    13   ar
    37    28    32    1
    38     1     2    1
@<TRIPOS>MOLECULE
*****
 34 38 0 0 0
SMALL
GASTEIGER

@<TRIPOS>ATOM
      1 N         144.8385  139.3547  163.6795 N.pl3   1  UNL1       -0.2802
      2 H         145.8159  139.2399  163.7074 H       1  UNL1        0.1552
      3 C         144.1053  139.2275  162.3771 C.ar    1  UNL1        0.2208
      4 N         143.3233  137.9837  162.0751 N.ar    1  UNL1       -0.2111
      5 C         142.5901  137.8565  160.7727 C.ar    1  UNL1        0.1147
      6 C         142.6390  138.9731  159.7723 C.ar    1  UNL1        0.0960
      7 CL        141.9058  138.8460  158.4700 Cl      1  UNL1       -0.0790
      8 C         143.4210  140.2171  160.0744 C.ar    1  UNL1        0.1138
      9 N         144.1541  140.3442  161.3768 N.ar    1  UNL1       -0.2111
     10 C         143.4698  141.3338  159.0741 C.ar    1  UNL1        0.1031
     11 C         144.3194  141.3741  157.8386 C.ar    1  UNL1        0.1196
     12 N         144.0522  142.6715  157.1346 N.ar    1  UNL1       -0.2248
     13 C         143.0375  143.4328  157.9350 C.ar    1  UNL1        0.1479
     14 C         142.3948  144.7721  157.7272 C.ar    1  UNL1        0.0374
     15 C         141.3922  145.2846  158.7182 C.ar    1  UNL1        0.0046
     16 C         141.0322  144.4579  159.9169 C.ar    1  UNL1        0.0191
     17 C         141.6749  143.1186  160.1247 C.ar    1  UNL1        0.0815
     18 N         142.6776  142.6061  159.1337 N.ar    1  UNL1       -0.2874
     19 C         143.6624  141.0643  165.2428 C.ar    1  UNL1        0.1533
     20 C         142.9064  141.3663  166.5028 C.ar    1  UNL1        0.0527
     21 C         142.5708  140.2606  167.4593 C.ar    1  UNL1        0.0514
     22 C         142.9910  138.8531  167.1559 C.ar    1  UNL1        0.0160
     23 C         143.7469  138.5511  165.8960 C.ar    1  UNL1        0.0190
     24 C         144.0826  139.6567  164.9394 C.ar    1  UNL1        0.0850
     25 N         141.8149  140.5627  168.7192 N.pl3   1  UNL1       -0.2980
     26 C         142.4747  141.3354  169.8227 C.3     1  UNL1        0.1124
     27 C         141.7188  141.6375  171.0827 C.3     1  UNL1        0.1109
     28 N         140.3032  141.1668  171.2391 N.am    1  UNL1       -0.3013
     29 C         139.6434  140.3941  170.1356 C.2     1  UNL1        0.2428
     30 O         138.2278  139.9234  170.2921 O.2     1  UNL1       -0.2732
     31 C         140.3993  140.0920  168.8757 C.3     1  UNL1        0.1771
     32 H         139.8071  141.3651  172.0660 H       1  UNL1        0.1495
     33 C         142.9014  142.9864  163.6691 C.3     1  UNL1        0.2525
     34 O         143.9980  142.1700  164.2863 O.3     1  UNL1       -0.4701
@<TRIPOS>BOND
     1    33    34    1
     2    34    19    1
     3    19    20   ar
     4    20    21   ar
     5    21    25    1
     6    25    26    1
     7    26    27    1
     8    27    28    1
     9    28    29   am
    10    29    30    2
    11    29    31    1
    12    21    22   ar
    13    22    23   ar
    14    23    24   ar
    15    24     1    1
    16     1     3    1
    17     3     4   ar
    18     4     5   ar
    19     5     6   ar
    20     6     7    1
    21     6     8   ar
    22     8    10    1
    23    10    11   ar
    24    11    12   ar
    25    12    13   ar
    26    13    14   ar
    27    14    15   ar
    28    15    16   ar
    29    16    17   ar
    30    17    18   ar
    31     8     9   ar
    32    24    19   ar
    33     9     3   ar
    34    31    25    1
    35    18    10   ar
    36    18    13   ar
    37    28    32    1
    38     1     2    1
