@<TRIPOS>MOLECULE
*****
 29 33 0 0 0
SMALL
GASTEIGER

@<TRIPOS>ATOM
      1 C         137.8776  142.8840  162.5988 C.3     1  UNL1        0.0294
      2 C         137.7123  144.0402  163.5401 C.3     1  UNL1        0.0666
      3 S         138.9209  144.7257  164.1054 S.3     1  UNL1       -0.0756
      4 C         142.1890  142.6804  164.5535 C.ar    1  UNL1        0.2029
      5 N         141.6399  142.6588  165.9492 N.ar    1  UNL1       -0.1250
      6 N         140.3489  143.4223  165.9512 N.ar    1  UNL1       -0.1220
      7 C         140.1000  143.9158  164.5567 C.ar    1  UNL1        0.1933
      8 N         141.2374  143.4572  163.6929 N.ar    1  UNL1       -0.2860
      9 C         141.3952  143.7281  162.2260 C.3     1  UNL1        0.1341
     10 C         142.4362  140.0599  162.6242 C.3     1  UNL1        0.0556
     11 C         143.5794  140.8334  163.2115 C.ar    1  UNL1        0.1001
     12 N         145.0368  140.5381  163.0151 N.ar    1  UNL1       -0.2085
     13 C         145.8240  141.5601  163.7805 C.ar    1  UNL1        0.2849
     14 O         144.8531  142.4870  164.4499 O.2     1  UNL1       -0.4283
     15 C         143.4658  142.0378  164.0982 C.ar    1  UNL1        0.1964
     16 C         137.2279  141.5675  162.9066 C.3     1  UNL1        0.0730
     17 N         138.0530  140.4269  163.4244 N.3     1  UNL1       -0.2724
     18 C         138.2229  139.0907  162.7644 C.3     1  UNL1        0.0724
     19 C         139.1280  138.2601  163.6252 C.3     1  UNL1        0.0214
     20 C         140.0373  137.6838  164.6696 C.3     1  UNL1        0.0072
     21 C         139.5176  139.0830  164.8172 C.3     1  UNL1        0.0350
     22 C         138.8532  140.4222  164.6931 C.3     1  UNL1        0.0761
     23 C         140.2091  139.3709  166.1168 C.ar    1  UNL1       -0.0206
     24 C         141.6932  139.1873  166.2334 C.ar    1  UNL1       -0.0042
     25 C         142.3848  139.4751  167.5331 C.ar    1  UNL1        0.0005
     26 C         141.5921  139.9466  168.7161 C.ar    1  UNL1        0.0114
     27 C         140.1079  140.1302  168.5994 C.ar    1  UNL1        0.0574
     28 CL        139.3153  140.6017  169.7824 Cl      1  UNL1       -0.0823
     29 C         139.4164  139.8424  167.2998 C.ar    1  UNL1        0.0072
@<TRIPOS>BOND
     1    10    11    1
     2    11    12   ar
     3    12    13   ar
     4    13    14   ar
     5    14    15   ar
     6    15     4    1
     7     4     5   ar
     8     5     6   ar
     9     6     7   ar
    10     7     3    1
    11     3     2    1
    12     2     1    1
    13     1    16    1
    14    16    17    1
    15    17    18    1
    16    18    19    1
    17    19    20    1
    18    20    21    1
    19    21    23    1
    20    23    24   ar
    21    24    25   ar
    22    25    26   ar
    23    26    27   ar
    24    27    28    1
    25    27    29   ar
    26    21    22    1
    27     7     8   ar
    28     8     9    1
    29    15    11   ar
    30     8     4   ar
    31    22    17    1
    32    21    19    1
    33    29    23   ar
@<TRIPOS>MOLECULE
*****
 29 33 0 0 0
SMALL
GASTEIGER

@<TRIPOS>ATOM
      1 C         144.7636  139.7546  164.0665 C.3     1  UNL1        0.0294
      2 C         145.5395  140.9922  163.7252 C.3     1  UNL1        0.0666
      3 S         145.0020  142.3416  164.0997 S.3     1  UNL1       -0.0756
      4 C         141.1374  142.6954  164.0333 C.ar    1  UNL1        0.2029
      5 N         141.4209  142.8865  165.4938 N.ar    1  UNL1       -0.1250
      6 N         142.9030  142.7773  165.6965 N.ar    1  UNL1       -0.1220
      7 C         143.5356  142.5186  164.3612 C.ar    1  UNL1        0.1933
      8 N         142.4443  142.4679  163.3334 N.ar    1  UNL1       -0.2860
      9 C         142.6279  142.2314  161.8635 C.3     1  UNL1        0.1341
     10 C         139.9102  145.1511  162.2689 C.3     1  UNL1        0.0556
     11 C         139.2203  143.8549  162.5755 C.ar    1  UNL1        0.1001
     12 N         137.8452  143.4600  162.1248 N.ar    1  UNL1       -0.2085
     13 C         137.5594  142.0871  162.6573 C.ar    1  UNL1        0.2849
     14 O         138.7578  141.6336  163.4370 O.2     1  UNL1       -0.4283
     15 C         139.7843  142.7262  163.3864 C.ar    1  UNL1        0.1964
     16 C         144.1214  138.9478  162.9773 C.3     1  UNL1        0.0730
     17 N         142.6695  138.5828  163.0709 N.3     1  UNL1       -0.2724
     18 C         141.8605  137.9040  162.0056 C.3     1  UNL1        0.0724
     19 C         140.4627  137.7343  162.5225 C.3     1  UNL1        0.0214
     20 C         139.1778  137.7053  163.2959 C.3     1  UNL1        0.0072
     21 C         140.4076  138.3083  163.9073 C.3     1  UNL1        0.0350
     22 C         141.7715  138.8327  164.2462 C.3     1  UNL1        0.0761
     23 C         139.7668  138.6842  165.2103 C.ar    1  UNL1       -0.0206
     24 C         138.4359  138.1037  165.5866 C.ar    1  UNL1       -0.0042
     25 C         137.7950  138.4796  166.8897 C.ar    1  UNL1        0.0005
     26 C         138.4852  139.4359  167.8166 C.ar    1  UNL1        0.0114
     27 C         139.8162  140.0164  167.4403 C.ar    1  UNL1        0.0574
     28 CL        140.5063  140.9728  168.3671 Cl      1  UNL1       -0.0823
     29 C         140.4570  139.6405  166.1372 C.ar    1  UNL1        0.0072
@<TRIPOS>BOND
     1    10    11    1
     2    11    12   ar
     3    12    13   ar
     4    13    14   ar
     5    14    15   ar
     6    15     4    1
     7     4     5   ar
     8     5     6   ar
     9     6     7   ar
    10     7     3    1
    11     3     2    1
    12     2     1    1
    13     1    16    1
    14    16    17    1
    15    17    18    1
    16    18    19    1
    17    19    20    1
    18    20    21    1
    19    21    23    1
    20    23    24   ar
    21    24    25   ar
    22    25    26   ar
    23    26    27   ar
    24    27    28    1
    25    27    29   ar
    26    21    22    1
    27     7     8   ar
    28     8     9    1
    29    15    11   ar
    30     8     4   ar
    31    22    17    1
    32    21    19    1
    33    29    23   ar
@<TRIPOS>MOLECULE
*****
 29 33 0 0 0
SMALL
GASTEIGER

@<TRIPOS>ATOM
      1 C         141.5004  145.1118  163.0921 C.3     1  UNL1        0.0294
      2 C         140.2209  145.1590  162.3106 C.3     1  UNL1        0.0666
      3 S         138.9222  144.8120  162.9765 S.3     1  UNL1       -0.0756
      4 C         138.1606  141.0886  163.7644 C.ar    1  UNL1        0.2029
      5 N         137.3813  141.2820  162.4974 N.ar    1  UNL1       -0.1250
      6 N         137.5717  142.7003  162.0481 N.ar    1  UNL1       -0.1220
      7 C         138.4687  143.3835  163.0373 C.ar    1  UNL1        0.1933
      8 N         138.8327  142.3874  164.0981 N.ar    1  UNL1       -0.2860
      9 C         139.7140  142.6449  165.2842 C.3     1  UNL1        0.1341
     10 C         139.2349  138.2105  162.6635 C.3     1  UNL1        0.0556
     11 C         138.7456  138.4963  164.0524 C.ar    1  UNL1        0.1001
     12 N         138.6642  137.5094  165.1790 N.ar    1  UNL1       -0.2085
     13 C         138.1201  138.2223  166.3813 C.ar    1  UNL1        0.2849
     14 O         137.8652  139.6498  165.9978 O.2     1  UNL1       -0.4283
     15 C         138.2518  139.8191  164.5584 C.ar    1  UNL1        0.1964
     16 C         142.7772  144.7078  162.4166 C.3     1  UNL1        0.0730
     17 N         143.4926  143.4621  162.8484 N.3     1  UNL1       -0.2724
     18 C         144.6383  142.8103  162.1326 C.3     1  UNL1        0.0724
     19 C         145.0417  141.5948  162.9136 C.3     1  UNL1        0.0214
     20 C         145.2130  140.4664  163.8868 C.3     1  UNL1        0.0072
     21 C         144.1453  141.4955  164.1122 C.3     1  UNL1        0.0350
     22 C         143.1879  142.6496  164.0718 C.3     1  UNL1        0.0761
     23 C         143.6174  140.8981  165.3827 C.ar    1  UNL1       -0.0206
     24 C         143.5848  139.4083  165.5541 C.ar    1  UNL1       -0.0042
     25 C         143.0568  138.8108  166.8247 C.ar    1  UNL1        0.0005
     26 C         142.5614  139.7032  167.9239 C.ar    1  UNL1        0.0114
     27 C         142.5941  141.1931  167.7525 C.ar    1  UNL1        0.0574
     28 CL        142.0987  142.0855  168.8517 Cl      1  UNL1       -0.0823
     29 C         143.1220  141.7905  166.4819 C.ar    1  UNL1        0.0072
@<TRIPOS>BOND
     1    10    11    1
     2    11    12   ar
     3    12    13   ar
     4    13    14   ar
     5    14    15   ar
     6    15     4    1
     7     4     5   ar
     8     5     6   ar
     9     6     7   ar
    10     7     3    1
    11     3     2    1
    12     2     1    1
    13     1    16    1
    14    16    17    1
    15    17    18    1
    16    18    19    1
    17    19    20    1
    18    20    21    1
    19    21    23    1
    20    23    24   ar
    21    24    25   ar
    22    25    26   ar
    23    26    27   ar
    24    27    28    1
    25    27    29   ar
    26    21    22    1
    27     7     8   ar
    28     8     9    1
    29    15    11   ar
    30     8     4   ar
    31    22    17    1
    32    21    19    1
    33    29    23   ar
@<TRIPOS>MOLECULE
*****
 29 33 0 0 0
SMALL
GASTEIGER

@<TRIPOS>ATOM
      1 C         138.7193  139.3519  161.9186 C.3     1  UNL1        0.0294
      2 C         138.4836  138.3368  162.9975 C.3     1  UNL1        0.0666
      3 S         139.4929  138.1581  164.0927 S.3     1  UNL1       -0.0756
      4 C         139.4250  139.6072  167.6928 C.ar    1  UNL1        0.2029
      5 N         138.0057  139.1470  167.5388 N.ar    1  UNL1       -0.1250
      6 N         137.8584  138.5482  166.1715 N.ar    1  UNL1       -0.1220
      7 C         139.1866  138.6383  165.4804 C.ar    1  UNL1        0.1933
      8 N         140.1548  139.2928  166.4207 N.ar    1  UNL1       -0.2860
      9 C         141.5994  139.5821  166.1382 C.3     1  UNL1        0.1341
     10 C         140.5459  142.6675  167.8605 C.3     1  UNL1        0.0556
     11 C         140.5267  141.6727  168.9831 C.ar    1  UNL1        0.1001
     12 N         141.0194  141.9101  170.3798 N.ar    1  UNL1       -0.2085
     13 C         140.8086  140.6501  171.1660 C.ar    1  UNL1        0.2849
     14 O         140.1858  139.6342  170.2552 O.2     1  UNL1       -0.4283
     15 C         140.0115  140.2662  168.9060 C.ar    1  UNL1        0.1964
     16 C         137.9138  140.6168  161.8900 C.3     1  UNL1        0.0730
     17 N         138.2771  141.7580  162.7931 N.3     1  UNL1       -0.2724
     18 C         137.3193  142.5830  163.6004 C.3     1  UNL1        0.0724
     19 C         138.1123  143.6095  164.3537 C.3     1  UNL1        0.0214
     20 C         139.1510  144.5025  164.9649 C.3     1  UNL1        0.0072
     21 C         139.5604  143.4189  164.0119 C.3     1  UNL1        0.0350
     22 C         139.6622  142.2747  163.0474 C.3     1  UNL1        0.0761
     23 C         141.0310  143.7090  164.0670 C.ar    1  UNL1       -0.0206
     24 C         141.5306  145.1012  163.8182 C.ar    1  UNL1       -0.0042
     25 C         143.0014  145.3913  163.8732 C.ar    1  UNL1        0.0005
     26 C         143.9724  144.2891  164.1771 C.ar    1  UNL1        0.0114
     27 C         143.4726  142.8968  164.4259 C.ar    1  UNL1        0.0574
     28 CL        144.4436  141.7946  164.7298 Cl      1  UNL1       -0.0823
     29 C         142.0020  142.6068  164.3709 C.ar    1  UNL1        0.0072
@<TRIPOS>BOND
     1    10    11    1
     2    11    12   ar
     3    12    13   ar
     4    13    14   ar
     5    14    15   ar
     6    15     4    1
     7     4     5   ar
     8     5     6   ar
     9     6     7   ar
    10     7     3    1
    11     3     2    1
    12     2     1    1
    13     1    16    1
    14    16    17    1
    15    17    18    1
    16    18    19    1
    17    19    20    1
    18    20    21    1
    19    21    23    1
    20    23    24   ar
    21    24    25   ar
    22    25    26   ar
    23    26    27   ar
    24    27    28    1
    25    27    29   ar
    26    21    22    1
    27     7     8   ar
    28     8     9    1
    29    15    11   ar
    30     8     4   ar
    31    22    17    1
    32    21    19    1
    33    29    23   ar
@<TRIPOS>MOLECULE
*****
 29 33 0 0 0
SMALL
GASTEIGER

@<TRIPOS>ATOM
      1 C         143.5391  139.5199  161.5382 C.3     1  UNL1        0.0294
      2 C         144.4111  140.4212  162.3612 C.3     1  UNL1        0.0666
      3 S         144.7392  140.0574  163.7790 S.3     1  UNL1       -0.0756
      4 C         142.5036  140.7888  166.8664 C.ar    1  UNL1        0.2029
      5 N         142.8337  142.1795  166.4115 N.ar    1  UNL1       -0.1250
      6 N         143.7113  142.0748  165.1997 N.ar    1  UNL1       -0.1220
      7 C         143.9237  140.6193  164.9055 C.ar    1  UNL1        0.1933
      8 N         143.1773  139.8246  165.9356 N.ar    1  UNL1       -0.2860
      9 C         143.1154  138.3282  166.0201 C.3     1  UNL1        0.1341
     10 C         139.3135  140.1056  166.7865 C.3     1  UNL1        0.0556
     11 C         140.1835  140.1120  168.0084 C.ar    1  UNL1        0.1001
     12 N         139.7399  139.8055  169.4081 N.ar    1  UNL1       -0.2085
     13 C         140.9320  139.9301  170.3099 C.ar    1  UNL1        0.2849
     14 O         142.1124  140.3136  169.4676 O.2     1  UNL1       -0.4283
     15 C         141.6498  140.4260  168.0452 C.ar    1  UNL1        0.1964
     16 C         142.5489  138.6158  162.2106 C.3     1  UNL1        0.0730
     17 N         141.1632  139.1085  162.5056 N.3     1  UNL1       -0.2724
     18 C         139.8967  138.3182  162.3596 C.3     1  UNL1        0.0724
     19 C         138.7514  139.1993  162.7623 C.3     1  UNL1        0.0214
     20 C         137.8308  140.2934  163.2152 C.3     1  UNL1        0.0072
     21 C         139.3102  140.5342  163.1571 C.3     1  UNL1        0.0350
     22 C         140.8007  140.4780  162.9985 C.3     1  UNL1        0.0761
     23 C         139.2569  141.9540  163.6378 C.ar    1  UNL1       -0.0206
     24 C         137.9722  142.5189  164.1673 C.ar    1  UNL1       -0.0042
     25 C         137.9190  143.9388  164.6481 C.ar    1  UNL1        0.0005
     26 C         139.1505  144.7938  164.5993 C.ar    1  UNL1        0.0114
     27 C         140.4352  144.2289  164.0698 C.ar    1  UNL1        0.0574
     28 CL        141.6668  145.0839  164.0210 Cl      1  UNL1       -0.0823
     29 C         140.4885  142.8090  163.5890 C.ar    1  UNL1        0.0072
@<TRIPOS>BOND
     1    10    11    1
     2    11    12   ar
     3    12    13   ar
     4    13    14   ar
     5    14    15   ar
     6    15     4    1
     7     4     5   ar
     8     5     6   ar
     9     6     7   ar
    10     7     3    1
    11     3     2    1
    12     2     1    1
    13     1    16    1
    14    16    17    1
    15    17    18    1
    16    18    19    1
    17    19    20    1
    18    20    21    1
    19    21    23    1
    20    23    24   ar
    21    24    25   ar
    22    25    26   ar
    23    26    27   ar
    24    27    28    1
    25    27    29   ar
    26    21    22    1
    27     7     8   ar
    28     8     9    1
    29    15    11   ar
    30     8     4   ar
    31    22    17    1
    32    21    19    1
    33    29    23   ar
@<TRIPOS>MOLECULE
*****
 29 33 0 0 0
SMALL
GASTEIGER

@<TRIPOS>ATOM
      1 C         138.1131  138.6698  162.1089 C.3     1  UNL1        0.0294
      2 C         139.4087  138.3253  162.7817 C.3     1  UNL1        0.0666
      3 S         139.4362  138.0375  164.2536 S.3     1  UNL1       -0.0756
      4 C         142.0845  139.5696  166.6420 C.ar    1  UNL1        0.2029
      5 N         142.8700  138.4568  166.0137 N.ar    1  UNL1       -0.1250
      6 N         141.9736  137.7475  165.0426 N.ar    1  UNL1       -0.1220
      7 C         140.6341  138.4218  165.0706 C.ar    1  UNL1        0.1933
      8 N         140.7027  139.5480  166.0591 N.ar    1  UNL1       -0.2860
      9 C         139.5854  140.4875  166.4041 C.3     1  UNL1        0.1341
     10 C         143.1446  142.6029  166.0718 C.3     1  UNL1        0.0556
     11 C         143.0791  141.9287  167.4102 C.ar    1  UNL1        0.1001
     12 N         143.4894  142.5305  168.7215 N.ar    1  UNL1       -0.2085
     13 C         143.2558  141.5082  169.7940 C.ar    1  UNL1        0.2849
     14 O         142.7011  140.2747  169.1456 O.2     1  UNL1       -0.4283
     15 C         142.5919  140.5346  167.6723 C.ar    1  UNL1        0.1964
     16 C         137.8852  140.0571  161.5860 C.3     1  UNL1        0.0730
     17 N         138.1898  141.2441  162.4510 N.3     1  UNL1       -0.2724
     18 C         137.2464  141.8954  163.4184 C.3     1  UNL1        0.0724
     19 C         137.9648  143.0421  164.0658 C.3     1  UNL1        0.0214
     20 C         138.9223  144.0988  164.5312 C.3     1  UNL1        0.0072
     21 C         139.3522  143.0995  163.4985 C.3     1  UNL1        0.0350
     22 C         139.4912  141.9883  162.5005 C.3     1  UNL1        0.0761
     23 C         140.7435  143.6348  163.3320 C.ar    1  UNL1       -0.0206
     24 C         141.1186  144.9519  163.9440 C.ar    1  UNL1       -0.0042
     25 C         142.5100  145.4872  163.7775 C.ar    1  UNL1        0.0005
     26 C         143.5262  144.7053  162.9991 C.ar    1  UNL1        0.0114
     27 C         143.1511  143.3882  162.3870 C.ar    1  UNL1        0.0574
     28 CL        144.1673  142.6063  161.6086 Cl      1  UNL1       -0.0823
     29 C         141.7598  142.8529  162.5535 C.ar    1  UNL1        0.0072
@<TRIPOS>BOND
     1    10    11    1
     2    11    12   ar
     3    12    13   ar
     4    13    14   ar
     5    14    15   ar
     6    15     4    1
     7     4     5   ar
     8     5     6   ar
     9     6     7   ar
    10     7     3    1
    11     3     2    1
    12     2     1    1
    13     1    16    1
    14    16    17    1
    15    17    18    1
    16    18    19    1
    17    19    20    1
    18    20    21    1
    19    21    23    1
    20    23    24   ar
    21    24    25   ar
    22    25    26   ar
    23    26    27   ar
    24    27    28    1
    25    27    29   ar
    26    21    22    1
    27     7     8   ar
    28     8     9    1
    29    15    11   ar
    30     8     4   ar
    31    22    17    1
    32    21    19    1
    33    29    23   ar
@<TRIPOS>MOLECULE
*****
 29 33 0 0 0
SMALL
GASTEIGER

@<TRIPOS>ATOM
      1 C         144.2502  143.2715  162.2701 C.3     1  UNL1        0.0294
      2 C         142.7845  143.5064  162.4859 C.3     1  UNL1        0.0666
      3 S         142.3079  144.1628  163.7477 S.3     1  UNL1       -0.0756
      4 C         141.5314  142.2571  167.0386 C.ar    1  UNL1        0.2029
      5 N         143.0277  142.1621  166.9949 N.ar    1  UNL1       -0.1250
      6 N         143.5007  142.8644  165.7568 N.ar    1  UNL1       -0.1220
      7 C         142.2967  143.3935  165.0354 C.ar    1  UNL1        0.1933
      8 N         141.0796  143.0181  165.8276 N.ar    1  UNL1       -0.2860
      9 C         139.6600  143.3462  165.4713 C.3     1  UNL1        0.1341
     10 C         140.6183  143.7746  169.7797 C.3     1  UNL1        0.0556
     11 C         140.2231  142.3880  169.3660 C.ar    1  UNL1        0.1001
     12 N         139.3389  141.4555  170.1396 N.ar    1  UNL1       -0.2085
     13 C         139.2121  140.1816  169.3578 C.ar    1  UNL1        0.2849
     14 O         140.0179  140.3268  168.1011 O.2     1  UNL1       -0.4283
     15 C         140.6428  141.6905  168.1062 C.ar    1  UNL1        0.1964
     16 C         144.7769  141.8716  162.1580 C.3     1  UNL1        0.0730
     17 N         144.3238  140.8199  163.1269 N.3     1  UNL1       -0.2724
     18 C         145.1280  140.2637  164.2644 C.3     1  UNL1        0.0724
     19 C         144.2881  139.2398  164.9688 C.3     1  UNL1        0.0214
     20 C         143.2340  138.2908  165.4568 C.3     1  UNL1        0.0072
     21 C         142.9648  139.1632  164.2667 C.3     1  UNL1        0.0350
     22 C         142.9869  140.1397  163.1283 C.3     1  UNL1        0.0761
     23 C         141.5716  138.6654  164.0193 C.ar    1  UNL1       -0.0206
     24 C         140.7068  138.2526  165.1733 C.ar    1  UNL1       -0.0042
     25 C         139.3135  137.7548  164.9259 C.ar    1  UNL1        0.0005
     26 C         138.7852  137.6698  163.5246 C.ar    1  UNL1        0.0114
     27 C         139.6501  138.0826  162.3706 C.ar    1  UNL1        0.0574
     28 CL        139.1218  137.9976  160.9693 Cl      1  UNL1       -0.0823
     29 C         141.0433  138.5804  162.6180 C.ar    1  UNL1        0.0072
@<TRIPOS>BOND
     1    10    11    1
     2    11    12   ar
     3    12    13   ar
     4    13    14   ar
     5    14    15   ar
     6    15     4    1
     7     4     5   ar
     8     5     6   ar
     9     6     7   ar
    10     7     3    1
    11     3     2    1
    12     2     1    1
    13     1    16    1
    14    16    17    1
    15    17    18    1
    16    18    19    1
    17    19    20    1
    18    20    21    1
    19    21    23    1
    20    23    24   ar
    21    24    25   ar
    22    25    26   ar
    23    26    27   ar
    24    27    28    1
    25    27    29   ar
    26    21    22    1
    27     7     8   ar
    28     8     9    1
    29    15    11   ar
    30     8     4   ar
    31    22    17    1
    32    21    19    1
    33    29    23   ar
@<TRIPOS>MOLECULE
*****
 29 33 0 0 0
SMALL
GASTEIGER

@<TRIPOS>ATOM
      1 C         141.5710  137.5533  163.6992 C.3     1  UNL1        0.0294
      2 C         142.8642  138.2506  163.3968 C.3     1  UNL1        0.0666
      3 S         143.3791  139.3113  164.3242 S.3     1  UNL1       -0.0756
      4 C         142.5535  139.5036  168.1119 C.ar    1  UNL1        0.2029
      5 N         143.4365  138.2918  168.0688 N.ar    1  UNL1       -0.1250
      6 N         143.8533  138.0723  166.6448 N.ar    1  UNL1       -0.1220
      7 C         143.2278  139.1484  165.8076 C.ar    1  UNL1        0.1933
      8 N         142.4245  140.0329  166.7144 N.ar    1  UNL1       -0.2860
      9 C         141.6315  141.2358  166.2968 C.3     1  UNL1        0.1341
     10 C         143.6172  142.0921  169.7906 C.3     1  UNL1        0.0556
     11 C         142.4010  141.2738  170.1089 C.ar    1  UNL1        0.1001
     12 N         141.4602  141.5017  171.2547 N.ar    1  UNL1       -0.2085
     13 C         140.3898  140.4527  171.1913 C.ar    1  UNL1        0.2849
     14 O         140.6691  139.5766  170.0063 O.2     1  UNL1       -0.4283
     15 C         141.9121  140.0841  169.3373 C.ar    1  UNL1        0.1964
     16 C         140.4444  137.6003  162.7101 C.3     1  UNL1        0.0730
     17 N         139.5161  138.7782  162.6860 N.3     1  UNL1       -0.2724
     18 C         138.0968  138.7725  162.2006 C.3     1  UNL1        0.0724
     19 C         137.5475  140.1595  162.3577 C.3     1  UNL1        0.0214
     20 C         137.2834  141.6110  162.6282 C.3     1  UNL1        0.0072
     21 C         138.6273  141.0224  162.9403 C.3     1  UNL1        0.0350
     22 C         139.8439  140.1687  163.1432 C.3     1  UNL1        0.0761
     23 C         139.2361  142.2898  163.4628 C.ar    1  UNL1       -0.0206
     24 C         140.5955  142.7174  162.9945 C.ar    1  UNL1       -0.0042
     25 C         141.2044  143.9849  163.5170 C.ar    1  UNL1        0.0005
     26 C         140.4539  144.8247  164.5077 C.ar    1  UNL1        0.0114
     27 C         139.0944  144.3970  164.9760 C.ar    1  UNL1        0.0574
     28 CL        138.3439  145.2368  165.9667 Cl      1  UNL1       -0.0823
     29 C         138.4856  143.1296  164.4535 C.ar    1  UNL1        0.0072
@<TRIPOS>BOND
     1    10    11    1
     2    11    12   ar
     3    12    13   ar
     4    13    14   ar
     5    14    15   ar
     6    15     4    1
     7     4     5   ar
     8     5     6   ar
     9     6     7   ar
    10     7     3    1
    11     3     2    1
    12     2     1    1
    13     1    16    1
    14    16    17    1
    15    17    18    1
    16    18    19    1
    17    19    20    1
    18    20    21    1
    19    21    23    1
    20    23    24   ar
    21    24    25   ar
    22    25    26   ar
    23    26    27   ar
    24    27    28    1
    25    27    29   ar
    26    21    22    1
    27     7     8   ar
    28     8     9    1
    29    15    11   ar
    30     8     4   ar
    31    22    17    1
    32    21    19    1
    33    29    23   ar
@<TRIPOS>MOLECULE
*****
 29 33 0 0 0
SMALL
GASTEIGER

@<TRIPOS>ATOM
      1 C         142.9183  143.5788  161.8834 C.3     1  UNL1        0.0294
      2 C         144.2968  143.5521  162.4743 C.3     1  UNL1        0.0666
      3 S         144.9254  142.2437  162.8527 S.3     1  UNL1       -0.0756
      4 C         143.1154  140.3921  165.7441 C.ar    1  UNL1        0.2029
      5 N         143.0966  139.3435  164.6717 N.ar    1  UNL1       -0.1250
      6 N         143.7723  139.9094  163.4581 N.ar    1  UNL1       -0.1220
      7 C         144.2088  141.3079  163.7804 C.ar    1  UNL1        0.1933
      8 N         143.8028  141.6061  165.1933 N.ar    1  UNL1       -0.2860
      9 C         144.0422  142.8927  165.9265 C.3     1  UNL1        0.1341
     10 C         140.5830  142.0569  166.9546 C.3     1  UNL1        0.0556
     11 C         141.3827  141.0165  167.6814 C.ar    1  UNL1        0.1001
     12 N         141.1588  140.5587  169.0922 N.ar    1  UNL1       -0.2085
     13 C         142.1844  139.5106  169.4076 C.ar    1  UNL1        0.2849
     14 O         143.0421  139.3206  168.1919 O.2     1  UNL1       -0.4283
     15 C         142.5467  140.2513  167.1250 C.ar    1  UNL1        0.1964
     16 C         141.7946  144.2336  162.6307 C.3     1  UNL1        0.0730
     17 N         140.4800  143.5265  162.7788 N.3     1  UNL1       -0.2724
     18 C         139.1351  144.0793  162.4104 C.3     1  UNL1        0.0724
     19 C         138.1034  143.0370  162.7253 C.3     1  UNL1        0.0214
     20 C         137.3186  141.8262  163.1352 C.3     1  UNL1        0.0072
     21 C         138.8107  141.8400  163.2884 C.3     1  UNL1        0.0350
     22 C         140.2795  142.1426  163.3214 C.3     1  UNL1        0.0761
     23 C         138.9221  140.4589  163.8630 C.ar    1  UNL1       -0.0206
     24 C         139.7482  139.4202  163.1640 C.ar    1  UNL1       -0.0042
     25 C         139.8596  138.0390  163.7387 C.ar    1  UNL1        0.0005
     26 C         139.1449  137.6967  165.0123 C.ar    1  UNL1        0.0114
     27 C         138.3187  138.7355  165.7112 C.ar    1  UNL1        0.0574
     28 CL        137.6040  138.3932  166.9848 Cl      1  UNL1       -0.0823
     29 C         138.2073  140.1166  165.1366 C.ar    1  UNL1        0.0072
@<TRIPOS>BOND
     1    10    11    1
     2    11    12   ar
     3    12    13   ar
     4    13    14   ar
     5    14    15   ar
     6    15     4    1
     7     4     5   ar
     8     5     6   ar
     9     6     7   ar
    10     7     3    1
    11     3     2    1
    12     2     1    1
    13     1    16    1
    14    16    17    1
    15    17    18    1
    16    18    19    1
    17    19    20    1
    18    20    21    1
    19    21    23    1
    20    23    24   ar
    21    24    25   ar
    22    25    26   ar
    23    26    27   ar
    24    27    28    1
    25    27    29   ar
    26    21    22    1
    27     7     8   ar
    28     8     9    1
    29    15    11   ar
    30     8     4   ar
    31    22    17    1
    32    21    19    1
    33    29    23   ar
