@<TRIPOS>MOLECULE
*****
 26 28 0 0 0
SMALL
GASTEIGER

@<TRIPOS>ATOM
      1 C         140.2375  143.1888  164.1947 C.2     1  UNL1        0.0596
      2 C         140.9360  142.7700  162.9350 C.2     1  UNL1        0.0324
      3 C         140.7751  143.5807  161.6833 C.2     1  UNL1        0.0889
      4 N         141.3359  143.4161  160.3018 N.2     1  UNL1       -0.2236
      5 C         140.8230  144.5437  159.4560 C.2     1  UNL1        0.1859
      6 N         139.9453  145.4053  160.3147 N.2     1  UNL1       -0.2387
      7 C         139.9157  144.8101  161.6912 C.3     1  UNL1        0.1679
      8 C         139.2172  145.2288  162.9509 C.2     1  UNL1        0.0164
      9 C         139.3782  144.4181  164.2026 C.2     1  UNL1        0.0690
     10 CL        138.6796  144.8368  165.4624 Cl      1  UNL1       -0.0812
     11 C         138.3020  140.9811  164.8112 C.3     1  UNL1        0.0229
     12 C         139.4307  141.2742  165.7547 C.3     1  UNL1        0.0888
     13 C         139.5916  140.4635  167.0065 C.3     1  UNL1        0.0921
     14 N         140.7203  140.7566  167.9500 N.3     1  UNL1       -0.2677
     15 C         141.6880  141.8605  167.6417 C.3     1  UNL1        0.0939
     16 C         141.5271  142.6712  166.3900 C.3     1  UNL1        0.1081
     17 N         140.3984  142.3780  165.4465 N.pl3   1  UNL1       -0.3056
     18 C         140.8812  139.9459  169.2017 C.3     1  UNL1        0.1043
     19 C         140.1475  140.3393  170.4495 C.3     1  UNL1        0.1544
     20 O         139.6431  139.2831  171.3875 O.3     1  UNL1       -0.3805
     21 H         138.9504  138.7649  170.9486 H       1  UNL1        0.2105
     22 S         141.1334  144.7701  158.0060 S.3     1  UNL1       -0.0777
     23 C         140.0271  144.7678  156.9930 C.3     1  UNL1        0.0461
     24 C         140.1644  146.2536  156.8397 C.3     1  UNL1        0.0113
     25 C         139.8898  143.2820  157.1462 C.3     1  UNL1        0.0113
     26 C         138.9209  144.7656  155.9800 C.3     1  UNL1        0.0113
@<TRIPOS>BOND
     1    12    11    1
     2    12    13    1
     3    13    14    1
     4    14    18    1
     5    18    19    1
     6    19    20    1
     7    14    15    1
     8    15    16    1
     9    16    17    1
    10    17     1    1
    11     1     2    2
    12     2     3    1
    13     3     4    2
    14     4     5    1
    15     5    22    1
    16    22    23    1
    17    23    24    1
    18    23    25    1
    19    23    26    1
    20     5     6    2
    21     6     7    1
    22     7     8    1
    23     8     9    2
    24     9    10    1
    25    17    12    1
    26     9     1    1
    27     7     3    1
    28    20    21    1
@<TRIPOS>MOLECULE
*****
 26 28 0 0 0
SMALL
GASTEIGER

@<TRIPOS>ATOM
      1 C         140.3853  139.3242  164.4676 C.2     1  UNL1        0.0596
      2 C         141.0248  139.9291  163.2529 C.2     1  UNL1        0.0324
      3 C         140.6555  139.4342  161.8859 C.2     1  UNL1        0.0889
      4 N         141.1155  139.8345  160.5155 N.2     1  UNL1       -0.2236
      5 C         140.3912  138.9820  159.5161 C.2     1  UNL1        0.1859
      6 N         139.4835  138.0550  160.2689 N.2     1  UNL1       -0.2387
      7 C         139.6469  138.3344  161.7336 C.3     1  UNL1        0.1679
      8 C         139.0075  137.7296  162.9482 C.2     1  UNL1        0.0164
      9 C         139.3768  138.2245  164.3152 C.2     1  UNL1        0.0690
     10 CL        138.7373  137.6195  165.5298 Cl      1  UNL1       -0.0812
     11 C         142.8736  138.3162  165.8063 C.3     1  UNL1        0.0229
     12 C         141.9988  139.3151  166.5040 C.3     1  UNL1        0.0888
     13 C         142.3680  139.8100  167.8710 C.3     1  UNL1        0.0921
     14 N         141.4931  140.8089  168.5687 N.3     1  UNL1       -0.2677
     15 C         140.2489  141.3129  167.8993 C.3     1  UNL1        0.0939
     16 C         139.8797  140.8180  166.5323 C.3     1  UNL1        0.1081
     17 N         140.7546  139.8191  165.8347 N.pl3   1  UNL1       -0.3056
     18 C         141.8624  141.3037  169.9357 C.3     1  UNL1        0.1043
     19 C         140.9625  141.0244  171.1028 C.3     1  UNL1        0.1544
     20 O         140.4888  142.1519  171.9714 O.3     1  UNL1       -0.3805
     21 H         141.2451  142.5398  172.4388 H       1  UNL1        0.2105
     22 S         140.5471  139.0455  158.0256 S.3     1  UNL1       -0.0777
     23 C         141.0106  137.8368  157.2678 C.3     1  UNL1        0.0461
     24 C         142.3725  137.9744  157.8812 C.3     1  UNL1        0.0113
     25 C         139.6487  137.6992  156.6544 C.3     1  UNL1        0.0113
     26 C         141.4740  136.6281  156.5100 C.3     1  UNL1        0.0113
@<TRIPOS>BOND
     1    12    11    1
     2    12    13    1
     3    13    14    1
     4    14    18    1
     5    18    19    1
     6    19    20    1
     7    14    15    1
     8    15    16    1
     9    16    17    1
    10    17     1    1
    11     1     2    2
    12     2     3    1
    13     3     4    2
    14     4     5    1
    15     5    22    1
    16    22    23    1
    17    23    24    1
    18    23    25    1
    19    23    26    1
    20     5     6    2
    21     6     7    1
    22     7     8    1
    23     8     9    2
    24     9    10    1
    25    17    12    1
    26     9     1    1
    27     7     3    1
    28    20    21    1
@<TRIPOS>MOLECULE
*****
 26 28 0 0 0
SMALL
GASTEIGER

@<TRIPOS>ATOM
      1 C         140.1938  143.6339  162.8759 C.2     1  UNL1        0.0596
      2 C         141.4711  143.1275  163.4777 C.2     1  UNL1        0.0324
      3 C         141.5363  142.8114  164.9426 C.2     1  UNL1        0.0889
      4 N         142.6479  142.3011  165.8107 N.2     1  UNL1       -0.2236
      5 C         142.1229  142.1759  167.2102 C.2     1  UNL1        0.1859
      6 N         140.6868  142.6089  167.2071 N.2     1  UNL1       -0.2387
      7 C         140.3242  143.0017  165.8056 C.3     1  UNL1        0.1679
      8 C         139.0470  143.5080  165.2037 C.2     1  UNL1        0.0164
      9 C         138.9818  143.8241  163.7388 C.2     1  UNL1        0.0690
     10 CL        137.7045  144.3305  163.1370 Cl      1  UNL1       -0.0812
     11 C         139.1195  141.6009  160.9490 C.3     1  UNL1        0.0229
     12 C         139.5914  142.9335  160.4475 C.3     1  UNL1        0.0888
     13 C         139.5262  143.2496  158.9827 C.3     1  UNL1        0.0921
     14 N         139.9982  144.5822  158.4812 N.3     1  UNL1       -0.2677
     15 C         140.5354  145.5987  159.4446 C.3     1  UNL1        0.0939
     16 C         140.6006  145.2826  160.9095 C.3     1  UNL1        0.1081
     17 N         140.1286  143.9500  161.4109 N.pl3   1  UNL1       -0.3056
     18 C         139.9330  144.8982  157.0164 C.3     1  UNL1        0.1043
     19 C         140.3941  146.2351  156.5162 C.3     1  UNL1        0.1544
     20 O         139.5012  147.4333  156.6461 O.3     1  UNL1       -0.3805
     21 H         138.7163  147.3135  156.0889 H       1  UNL1        0.2105
     22 S         142.8980  141.7011  168.4035 S.3     1  UNL1       -0.0777
     23 C         142.3983  140.5378  169.2080 C.3     1  UNL1        0.0461
     24 C         142.6646  139.6225  168.0499 C.3     1  UNL1        0.0113
     25 C         142.1320  141.4532  170.3661 C.3     1  UNL1        0.0113
     26 C         141.8986  139.3746  170.0125 C.3     1  UNL1        0.0113
@<TRIPOS>BOND
     1    12    11    1
     2    12    13    1
     3    13    14    1
     4    14    18    1
     5    18    19    1
     6    19    20    1
     7    14    15    1
     8    15    16    1
     9    16    17    1
    10    17     1    1
    11     1     2    2
    12     2     3    1
    13     3     4    2
    14     4     5    1
    15     5    22    1
    16    22    23    1
    17    23    24    1
    18    23    25    1
    19    23    26    1
    20     5     6    2
    21     6     7    1
    22     7     8    1
    23     8     9    2
    24     9    10    1
    25    17    12    1
    26     9     1    1
    27     7     3    1
    28    20    21    1
@<TRIPOS>MOLECULE
*****
 26 28 0 0 0
SMALL
GASTEIGER

@<TRIPOS>ATOM
      1 C         139.8004  139.4657  163.6173 C.2     1  UNL1        0.0596
      2 C         140.3480  140.5620  164.4824 C.2     1  UNL1        0.0324
      3 C         140.0824  140.5559  165.9587 C.2     1  UNL1        0.0889
      4 N         140.4885  141.4951  167.0555 N.2     1  UNL1       -0.2236
      5 C         139.9264  140.9731  168.3445 C.2     1  UNL1        0.1859
      6 N         139.1729  139.7113  168.0444 N.2     1  UNL1       -0.2387
      7 C         139.2693  139.4534  166.5698 C.3     1  UNL1        0.1679
      8 C         138.7218  138.3572  165.7047 C.2     1  UNL1        0.0164
      9 C         138.9874  138.3634  164.2284 C.2     1  UNL1        0.0690
     10 CL        138.4398  137.2670  163.3633 Cl      1  UNL1       -0.0812
     11 C         142.1276  137.9334  162.5055 C.3     1  UNL1        0.0229
     12 C         141.2296  138.7057  161.5850 C.3     1  UNL1        0.0888
     13 C         141.4952  138.7119  160.1087 C.3     1  UNL1        0.0921
     14 N         140.5972  139.4843  159.1884 N.3     1  UNL1       -0.2677
     15 C         139.4336  140.2504  159.7443 C.3     1  UNL1        0.0939
     16 C         139.1680  140.2442  161.2206 C.3     1  UNL1        0.1081
     17 N         140.0660  139.4719  162.1409 N.pl3   1  UNL1       -0.3056
     18 C         140.8628  139.4904  157.7121 C.3     1  UNL1        0.1043
     19 C         140.6249  138.2505  156.9021 C.3     1  UNL1        0.1544
     20 O         139.4678  137.3529  157.2267 O.3     1  UNL1       -0.3805
     21 H         139.6040  136.9528  158.0998 H       1  UNL1        0.2105
     22 S         140.0892  141.6025  169.6963 S.3     1  UNL1       -0.0777
     23 C         141.3487  142.3450  170.0311 C.3     1  UNL1        0.0461
     24 C         140.6323  143.6483  169.8360 C.3     1  UNL1        0.0113
     25 C         142.0651  141.0417  170.2263 C.3     1  UNL1        0.0113
     26 C         142.6083  143.0876  170.3660 C.3     1  UNL1        0.0113
@<TRIPOS>BOND
     1    12    11    1
     2    12    13    1
     3    13    14    1
     4    14    18    1
     5    18    19    1
     6    19    20    1
     7    14    15    1
     8    15    16    1
     9    16    17    1
    10    17     1    1
    11     1     2    2
    12     2     3    1
    13     3     4    2
    14     4     5    1
    15     5    22    1
    16    22    23    1
    17    23    24    1
    18    23    25    1
    19    23    26    1
    20     5     6    2
    21     6     7    1
    22     7     8    1
    23     8     9    2
    24     9    10    1
    25    17    12    1
    26     9     1    1
    27     7     3    1
    28    20    21    1
@<TRIPOS>MOLECULE
*****
 26 28 0 0 0
SMALL
GASTEIGER

@<TRIPOS>ATOM
      1 C         142.3797  142.2871  164.5925 C.2     1  UNL1        0.0596
      2 C         141.4168  141.9896  163.4814 C.2     1  UNL1        0.0324
      3 C         141.6104  142.6176  162.1330 C.2     1  UNL1        0.0889
      4 N         140.8307  142.5132  160.8559 N.2     1  UNL1       -0.2236
      5 C         141.5053  143.3740  159.8293 C.2     1  UNL1        0.1859
      6 N         142.7019  144.0105  160.4720 N.2     1  UNL1       -0.2387
      7 C         142.7669  143.5431  161.8958 C.3     1  UNL1        0.1679
      8 C         143.7297  143.8405  163.0069 C.2     1  UNL1        0.0164
      9 C         143.5360  143.2125  164.3552 C.2     1  UNL1        0.0690
     10 CL        144.4989  143.5100  165.4663 Cl      1  UNL1       -0.0812
     11 C         143.6430  139.6367  165.2082 C.3     1  UNL1        0.0229
     12 C         142.8177  140.3339  166.2488 C.3     1  UNL1        0.0888
     13 C         142.6241  139.7059  167.5972 C.3     1  UNL1        0.0921
     14 N         141.7988  140.4031  168.6377 N.3     1  UNL1       -0.2677
     15 C         141.1671  141.7283  168.3299 C.3     1  UNL1        0.0939
     16 C         141.3607  142.3563  166.9815 C.3     1  UNL1        0.1081
     17 N         142.1861  141.6591  165.9410 N.pl3   1  UNL1       -0.3056
     18 C         141.6052  139.7751  169.9860 C.3     1  UNL1        0.1043
     19 C         140.4612  140.2044  170.8561 C.3     1  UNL1        0.1544
     20 O         139.5634  139.1753  171.4766 O.3     1  UNL1       -0.3805
     21 H         139.0725  138.7122  170.7798 H       1  UNL1        0.2105
     22 S         141.0612  143.5649  158.4093 S.3     1  UNL1       -0.0777
     23 C         141.5214  144.7638  157.6343 C.3     1  UNL1        0.0461
     24 C         142.5835  143.9321  156.9784 C.3     1  UNL1        0.0113
     25 C         140.4594  145.5955  158.2901 C.3     1  UNL1        0.0113
     26 C         141.9817  145.9627  156.8592 C.3     1  UNL1        0.0113
@<TRIPOS>BOND
     1    12    11    1
     2    12    13    1
     3    13    14    1
     4    14    18    1
     5    18    19    1
     6    19    20    1
     7    14    15    1
     8    15    16    1
     9    16    17    1
    10    17     1    1
    11     1     2    2
    12     2     3    1
    13     3     4    2
    14     4     5    1
    15     5    22    1
    16    22    23    1
    17    23    24    1
    18    23    25    1
    19    23    26    1
    20     5     6    2
    21     6     7    1
    22     7     8    1
    23     8     9    2
    24     9    10    1
    25    17    12    1
    26     9     1    1
    27     7     3    1
    28    20    21    1
@<TRIPOS>MOLECULE
*****
 26 28 0 0 0
SMALL
GASTEIGER

@<TRIPOS>ATOM
      1 C         140.3077  139.0945  163.7002 C.2     1  UNL1        0.0596
      2 C         140.9992  140.0319  164.6453 C.2     1  UNL1        0.0324
      3 C         140.5185  140.1600  166.0604 C.2     1  UNL1        0.0889
      4 N         140.9965  140.9951  167.2111 N.2     1  UNL1       -0.2236
      5 C         140.1197  140.7019  168.3923 C.2     1  UNL1        0.1859
      6 N         139.0998  139.6855  167.9716 N.2     1  UNL1       -0.2387
      7 C         139.3463  139.3506  166.5304 C.3     1  UNL1        0.1679
      8 C         138.6549  138.4132  165.5854 C.2     1  UNL1        0.0164
      9 C         139.1356  138.2851  164.1703 C.2     1  UNL1        0.0690
     10 CL        138.4441  137.3477  163.2252 Cl      1  UNL1       -0.0812
     11 C         139.1152  140.8129  161.5497 C.3     1  UNL1        0.0229
     12 C         140.1922  139.8256  161.2098 C.3     1  UNL1        0.0888
     13 C         140.6729  139.6975  159.7947 C.3     1  UNL1        0.0921
     14 N         141.7499  138.7103  159.4549 N.3     1  UNL1       -0.2677
     15 C         142.3462  137.8511  160.5302 C.3     1  UNL1        0.0939
     16 C         141.8654  137.9791  161.9453 C.3     1  UNL1        0.1081
     17 N         140.7885  138.9664  162.2851 N.pl3   1  UNL1       -0.3056
     18 C         142.2306  138.5823  158.0398 C.3     1  UNL1        0.1043
     19 C         143.2906  139.5083  157.5211 C.3     1  UNL1        0.1544
     20 O         144.3481  140.0316  158.4473 O.3     1  UNL1       -0.3805
     21 H         143.9395  140.6085  159.1114 H       1  UNL1        0.2105
     22 S         140.2413  141.3170  169.7549 S.3     1  UNL1       -0.0777
     23 C         141.3973  142.2195  170.0699 C.3     1  UNL1        0.0461
     24 C         140.5648  143.4130  169.7056 C.3     1  UNL1        0.0113
     25 C         142.2298  141.0261  170.4341 C.3     1  UNL1        0.0113
     26 C         142.5533  143.1220  170.3849 C.3     1  UNL1        0.0113
@<TRIPOS>BOND
     1    12    11    1
     2    12    13    1
     3    13    14    1
     4    14    18    1
     5    18    19    1
     6    19    20    1
     7    14    15    1
     8    15    16    1
     9    16    17    1
    10    17     1    1
    11     1     2    2
    12     2     3    1
    13     3     4    2
    14     4     5    1
    15     5    22    1
    16    22    23    1
    17    23    24    1
    18    23    25    1
    19    23    26    1
    20     5     6    2
    21     6     7    1
    22     7     8    1
    23     8     9    2
    24     9    10    1
    25    17    12    1
    26     9     1    1
    27     7     3    1
    28    20    21    1
@<TRIPOS>MOLECULE
*****
 26 28 0 0 0
SMALL
GASTEIGER

@<TRIPOS>ATOM
      1 C         140.1979  139.5200  164.6120 C.2     1  UNL1        0.0596
      2 C         140.6543  140.4893  163.5621 C.2     1  UNL1        0.0324
      3 C         140.2285  140.3051  162.1356 C.2     1  UNL1        0.0889
      4 N         140.5180  141.0926  160.8922 N.2     1  UNL1       -0.2236
      5 C         139.8147  140.4260  159.7472 C.2     1  UNL1        0.1859
      6 N         139.0906  139.2265  160.2830 N.2     1  UNL1       -0.2387
      7 C         139.3464  139.1518  161.7591 C.3     1  UNL1        0.1679
      8 C         138.8900  138.1827  162.8091 C.2     1  UNL1        0.0164
      9 C         139.3158  138.3668  164.2355 C.2     1  UNL1        0.0690
     10 CL        138.8594  137.3976  165.2855 Cl      1  UNL1       -0.0812
     11 C         142.8978  138.5661  165.5066 C.3     1  UNL1        0.0229
     12 C         141.9736  139.2272  166.4859 C.3     1  UNL1        0.0888
     13 C         142.3994  139.4113  167.9124 C.3     1  UNL1        0.0921
     14 N         141.4752  140.0724  168.8915 N.3     1  UNL1       -0.2677
     15 C         140.1252  140.5494  168.4442 C.3     1  UNL1        0.0939
     16 C         139.6995  140.3653  167.0178 C.3     1  UNL1        0.1081
     17 N         140.6237  139.7042  166.0386 N.pl3   1  UNL1       -0.3056
     18 C         141.9010  140.2565  170.3180 C.3     1  UNL1        0.1043
     19 C         141.2716  141.3296  171.1560 C.3     1  UNL1        0.1544
     20 O         142.1320  142.2289  171.9932 O.3     1  UNL1       -0.3805
     21 H         142.5607  141.7088  172.6908 H       1  UNL1        0.2105
     22 S         139.8324  140.8792  158.3174 S.3     1  UNL1       -0.0777
     23 C         138.5428  141.0760  157.5770 C.3     1  UNL1        0.0461
     24 C         138.8334  139.8604  156.7477 C.3     1  UNL1        0.0113
     25 C         138.2521  142.2916  158.4063 C.3     1  UNL1        0.0113
     26 C         137.2532  141.2728  156.8366 C.3     1  UNL1        0.0113
@<TRIPOS>BOND
     1    12    11    1
     2    12    13    1
     3    13    14    1
     4    14    18    1
     5    18    19    1
     6    19    20    1
     7    14    15    1
     8    15    16    1
     9    16    17    1
    10    17     1    1
    11     1     2    2
    12     2     3    1
    13     3     4    2
    14     4     5    1
    15     5    22    1
    16    22    23    1
    17    23    24    1
    18    23    25    1
    19    23    26    1
    20     5     6    2
    21     6     7    1
    22     7     8    1
    23     8     9    2
    24     9    10    1
    25    17    12    1
    26     9     1    1
    27     7     3    1
    28    20    21    1
@<TRIPOS>MOLECULE
*****
 26 28 0 0 0
SMALL
GASTEIGER

@<TRIPOS>ATOM
      1 C         139.8198  141.0949  163.1682 C.2     1  UNL1        0.0596
      2 C         140.2251  141.7135  164.4733 C.2     1  UNL1        0.0324
      3 C         139.8531  141.0492  165.7657 C.2     1  UNL1        0.0889
      4 N         140.1115  141.4205  167.1958 N.2     1  UNL1       -0.2236
      5 C         139.4939  140.3671  168.0670 C.2     1  UNL1        0.1859
      6 N         138.8537  139.3448  167.1753 N.2     1  UNL1       -0.2387
      7 C         139.0757  139.7664  165.7530 C.3     1  UNL1        0.1679
      8 C         138.6704  139.1479  164.4479 C.2     1  UNL1        0.0164
      9 C         139.0425  139.8122  163.1555 C.2     1  UNL1        0.0690
     10 CL        138.6372  139.1936  161.8504 Cl      1  UNL1       -0.0812
     11 C         137.9732  143.1099  161.9313 C.3     1  UNL1        0.0229
     12 C         139.2687  142.7667  161.2573 C.3     1  UNL1        0.0888
     13 C         139.6408  143.4310  159.9649 C.3     1  UNL1        0.0921
     14 N         140.9362  143.0878  159.2910 N.3     1  UNL1       -0.2677
     15 C         141.8595  142.0803  159.9095 C.3     1  UNL1        0.0939
     16 C         141.4874  141.4161  161.2019 C.3     1  UNL1        0.1081
     17 N         140.1920  141.7592  161.8758 N.pl3   1  UNL1       -0.3056
     18 C         141.3082  143.7521  157.9987 C.3     1  UNL1        0.1043
     19 C         141.3299  145.2490  157.9039 C.3     1  UNL1        0.1544
     20 O         142.6385  145.9754  157.8040 O.3     1  UNL1       -0.3805
     21 H         143.1373  145.8577  158.6276 H       1  UNL1        0.2105
     22 S         139.5130  140.3406  169.5667 S.3     1  UNL1       -0.0777
     23 C         140.6848  140.9077  170.3119 C.3     1  UNL1        0.0461
     24 C         139.9334  142.1894  170.5182 C.3     1  UNL1        0.0113
     25 C         141.4362  139.6259  170.1055 C.3     1  UNL1        0.0113
     26 C         141.8566  141.4747  171.0571 C.3     1  UNL1        0.0113
@<TRIPOS>BOND
     1    12    11    1
     2    12    13    1
     3    13    14    1
     4    14    18    1
     5    18    19    1
     6    19    20    1
     7    14    15    1
     8    15    16    1
     9    16    17    1
    10    17     1    1
    11     1     2    2
    12     2     3    1
    13     3     4    2
    14     4     5    1
    15     5    22    1
    16    22    23    1
    17    23    24    1
    18    23    25    1
    19    23    26    1
    20     5     6    2
    21     6     7    1
    22     7     8    1
    23     8     9    2
    24     9    10    1
    25    17    12    1
    26     9     1    1
    27     7     3    1
    28    20    21    1
@<TRIPOS>MOLECULE
*****
 26 28 0 0 0
SMALL
GASTEIGER

@<TRIPOS>ATOM
      1 C         142.2044  140.3256  164.4801 C.2     1  UNL1        0.0596
      2 C         141.7091  141.0609  163.2701 C.2     1  UNL1        0.0324
      3 C         142.3552  140.8309  161.9361 C.2     1  UNL1        0.0889
      4 N         142.0853  141.4066  160.5776 N.2     1  UNL1       -0.2236
      5 C         143.0600  140.7971  159.6139 C.2     1  UNL1        0.1859
      6 N         143.9322  139.8447  160.3769 N.2     1  UNL1       -0.2387
      7 C         143.4966  139.8655  161.8121 C.3     1  UNL1        0.1679
      8 C         143.9919  139.1303  163.0221 C.2     1  UNL1        0.0164
      9 C         143.3457  139.3603  164.3561 C.2     1  UNL1        0.0690
     10 CL        143.8411  138.6250  165.5661 Cl      1  UNL1       -0.0812
     11 C         143.3202  142.3877  166.3516 C.3     1  UNL1        0.0229
     12 C         142.1161  141.5867  166.7500 C.3     1  UNL1        0.0888
     13 C         141.4700  141.8167  168.0840 C.3     1  UNL1        0.0921
     14 N         140.2659  141.0157  168.4822 N.3     1  UNL1       -0.2677
     15 C         139.7080  139.9846  167.5464 C.3     1  UNL1        0.0939
     16 C         140.3542  139.7546  166.2124 C.3     1  UNL1        0.1081
     17 N         141.5582  140.5556  165.8142 N.pl3   1  UNL1       -0.3056
     18 C         139.6198  141.2458  169.8162 C.3     1  UNL1        0.1043
     19 C         140.0421  142.4095  170.6633 C.3     1  UNL1        0.1544
     20 O         140.6834  142.1718  171.9983 O.3     1  UNL1       -0.3805
     21 H         140.0408  141.7600  172.5970 H       1  UNL1        0.2105
     22 S         143.1471  141.0888  158.1452 S.3     1  UNL1       -0.0777
     23 C         144.4680  141.4405  157.5274 C.3     1  UNL1        0.0461
     24 C         144.4078  140.1969  156.6908 C.3     1  UNL1        0.0113
     25 C         144.5281  142.6841  158.3640 C.3     1  UNL1        0.0113
     26 C         145.7888  141.7922  156.9097 C.3     1  UNL1        0.0113
@<TRIPOS>BOND
     1    12    11    1
     2    12    13    1
     3    13    14    1
     4    14    18    1
     5    18    19    1
     6    19    20    1
     7    14    15    1
     8    15    16    1
     9    16    17    1
    10    17     1    1
    11     1     2    2
    12     2     3    1
    13     3     4    2
    14     4     5    1
    15     5    22    1
    16    22    23    1
    17    23    24    1
    18    23    25    1
    19    23    26    1
    20     5     6    2
    21     6     7    1
    22     7     8    1
    23     8     9    2
    24     9    10    1
    25    17    12    1
    26     9     1    1
    27     7     3    1
    28    20    21    1
