@<TRIPOS>MOLECULE
*****
 30 33 0 0 0
SMALL
GASTEIGER

@<TRIPOS>ATOM
      1 C         141.6320  140.4096  162.0197 C.3     1  UNL1        0.0539
      2 C         141.4040  141.4292  163.0959 C.3     1  UNL1        0.2052
      3 C         140.1700  142.2818  163.0721 C.ar    1  UNL1        0.0940
      4 N         140.2192  143.6558  162.4724 N.ar    1  UNL1       -0.3204
      5 C         138.9852  144.5084  162.4485 C.ar    1  UNL1        0.2577
      6 O         139.0344  145.8824  161.8488 O.2     1  UNL1       -0.2672
      7 C         137.7021  143.9869  163.0244 C.ar    1  UNL1        0.0621
      8 C         137.6529  142.6128  163.6241 C.ar    1  UNL1        0.0253
      9 C         138.8869  141.7603  163.6479 C.ar    1  UNL1        0.0979
     10 H         141.0613  143.9981  162.0944 H       1  UNL1        0.1688
     11 N         138.8378  140.3862  164.2477 N.ar    1  UNL1       -0.2269
     12 C         138.6147  140.0636  165.6955 C.ar    1  UNL1        0.1021
     13 C         138.6422  138.5716  165.8474 C.ar    1  UNL1        0.0431
     14 C         138.8821  137.9720  164.4935 C.ar    1  UNL1        0.1221
     15 N         139.0030  139.0937  163.5047 N.ar    1  UNL1       -0.1634
     16 O         142.4099  141.5964  164.1959 O.3     1  UNL1       -0.4704
     17 C         142.0532  141.2165  165.6025 C.ar    1  UNL1        0.1698
     18 C         141.3920  142.2159  166.5047 C.ar    1  UNL1        0.0414
     19 C         141.0353  141.8359  167.9113 C.ar    1  UNL1        0.0230
     20 C         140.3741  142.8353  168.8134 C.ar    1  UNL1        0.0312
     21 C         140.0174  142.4553  170.2199 C.ar    1  UNL1        0.1402
     22 F         139.3562  143.4547  171.1221 F       1  UNL1       -0.2042
     23 C         140.3220  141.0759  170.7243 C.ar    1  UNL1        0.0312
     24 C         140.9833  140.0765  169.8222 C.ar    1  UNL1        0.0215
     25 C         141.3399  140.4565  168.4157 C.ar    1  UNL1        0.0830
     26 N         142.0012  139.4570  167.5135 N.ar    1  UNL1       -0.2280
     27 C         142.3578  139.8370  166.1069 C.ar    1  UNL1        0.1596
     28 N         143.0191  138.8376  165.2047 N.pl3   1  UNL1       -0.3402
     29 H         143.2190  137.9322  165.5357 H       1  UNL1        0.1438
     30 H         143.2532  139.0870  164.2816 H       1  UNL1        0.1438
@<TRIPOS>BOND
     1     2     1    1
     2     2    16    1
     3    16    17    1
     4    17    18   ar
     5    18    19   ar
     6    19    20   ar
     7    20    21   ar
     8    21    22    1
     9    21    23   ar
    10    23    24   ar
    11    24    25   ar
    12    25    26   ar
    13    26    27   ar
    14    27    28    1
    15     2     3    1
    16     3     4   ar
    17     4     5   ar
    18     5     6    2
    19     5     7   ar
    20     7     8   ar
    21     8     9   ar
    22     9    11    1
    23    11    12   ar
    24    12    13   ar
    25    13    14   ar
    26    14    15   ar
    27    27    17   ar
    28     9     3   ar
    29    15    11   ar
    30    25    19   ar
    31    28    29    1
    32    28    30    1
    33     4    10    1
@<TRIPOS>MOLECULE
*****
 30 33 0 0 0
SMALL
GASTEIGER

@<TRIPOS>ATOM
      1 C         137.4973  138.2904  167.0938 C.3     1  UNL1        0.0539
      2 C         138.4546  138.6217  165.9876 C.3     1  UNL1        0.2052
      3 C         138.6080  140.0415  165.5285 C.ar    1  UNL1        0.0940
      4 N         137.8148  140.5410  164.3575 N.ar    1  UNL1       -0.3204
      5 C         137.9682  141.9608  163.8984 C.ar    1  UNL1        0.2577
      6 O         137.1750  142.4603  162.7274 O.2     1  UNL1       -0.2672
      7 C         138.9149  142.8810  164.6104 C.ar    1  UNL1        0.0621
      8 C         139.7081  142.3815  165.7814 C.ar    1  UNL1        0.0253
      9 C         139.5547  140.9618  166.2405 C.ar    1  UNL1        0.0979
     10 H         137.1934  139.9370  163.8902 H       1  UNL1        0.1688
     11 N         140.3479  140.4622  167.4115 N.ar    1  UNL1       -0.2269
     12 C         139.8724  140.3902  168.8323 C.ar    1  UNL1        0.1021
     13 C         140.9865  139.8305  169.6662 C.ar    1  UNL1        0.0431
     14 C         142.1507  139.5565  168.7607 C.ar    1  UNL1        0.1221
     15 N         141.7560  139.9470  167.3672 N.ar    1  UNL1       -0.1634
     16 O         139.2585  137.5332  165.3403 O.3     1  UNL1       -0.4704
     17 C         140.0012  137.8060  164.0659 C.ar    1  UNL1        0.1698
     18 C         139.2542  137.9048  162.7690 C.ar    1  UNL1        0.0414
     19 C         139.9970  138.1776  161.4946 C.ar    1  UNL1        0.0230
     20 C         139.2500  138.2765  160.1976 C.ar    1  UNL1        0.0312
     21 C         139.9927  138.5492  158.9233 C.ar    1  UNL1        0.1402
     22 F         139.2457  138.6481  157.6262 F       1  UNL1       -0.2042
     23 C         141.4824  138.7231  158.9460 C.ar    1  UNL1        0.0312
     24 C         142.2294  138.6242  160.2429 C.ar    1  UNL1        0.0215
     25 C         141.4867  138.3515  161.5172 C.ar    1  UNL1        0.0830
     26 N         142.2337  138.2526  162.8143 N.ar    1  UNL1       -0.2280
     27 C         141.4909  137.9798  164.0886 C.ar    1  UNL1        0.1596
     28 N         142.2379  137.8809  165.3857 N.pl3   1  UNL1       -0.3402
     29 H         143.2157  137.9951  165.4006 H       1  UNL1        0.1438
     30 H         141.7504  137.7019  166.2221 H       1  UNL1        0.1438
@<TRIPOS>BOND
     1     2     1    1
     2     2    16    1
     3    16    17    1
     4    17    18   ar
     5    18    19   ar
     6    19    20   ar
     7    20    21   ar
     8    21    22    1
     9    21    23   ar
    10    23    24   ar
    11    24    25   ar
    12    25    26   ar
    13    26    27   ar
    14    27    28    1
    15     2     3    1
    16     3     4   ar
    17     4     5   ar
    18     5     6    2
    19     5     7   ar
    20     7     8   ar
    21     8     9   ar
    22     9    11    1
    23    11    12   ar
    24    12    13   ar
    25    13    14   ar
    26    14    15   ar
    27    27    17   ar
    28     9     3   ar
    29    15    11   ar
    30    25    19   ar
    31    28    29    1
    32    28    30    1
    33     4    10    1
@<TRIPOS>MOLECULE
*****
 30 33 0 0 0
SMALL
GASTEIGER

@<TRIPOS>ATOM
      1 C         137.7075  142.4810  163.0541 C.3     1  UNL1        0.0539
      2 C         138.8984  141.9157  163.7697 C.3     1  UNL1        0.2052
      3 C         138.8769  140.4972  164.2571 C.ar    1  UNL1        0.0940
      4 N         138.0764  140.1338  165.4724 N.ar    1  UNL1       -0.3204
      5 C         138.0549  138.7153  165.9598 C.ar    1  UNL1        0.2577
      6 O         137.2544  138.3520  167.1752 O.2     1  UNL1       -0.2672
      7 C         138.8339  137.6603  165.2318 C.ar    1  UNL1        0.0621
      8 C         139.6344  138.0237  164.0164 C.ar    1  UNL1        0.0253
      9 C         139.6559  139.4422  163.5291 C.ar    1  UNL1        0.0979
     10 H         137.5651  140.8263  165.9503 H       1  UNL1        0.1688
     11 N         140.4564  139.8056  162.3136 N.ar    1  UNL1       -0.2269
     12 C         139.9323  139.9124  160.9122 C.ar    1  UNL1        0.1021
     13 C         141.0735  140.2989  160.0188 C.ar    1  UNL1        0.0431
     14 C         142.3030  140.4309  160.8680 C.ar    1  UNL1        0.1221
     15 N         141.9215  140.1261  162.2864 N.ar    1  UNL1       -0.1634
     16 O         140.1109  142.7689  163.9980 O.3     1  UNL1       -0.4704
     17 C         140.9166  142.6066  165.2529 C.ar    1  UNL1        0.1698
     18 C         140.2382  142.6453  166.5901 C.ar    1  UNL1        0.0414
     19 C         141.0440  142.4830  167.8449 C.ar    1  UNL1        0.0230
     20 C         140.3655  142.5218  169.1821 C.ar    1  UNL1        0.0312
     21 C         141.1713  142.3595  170.4368 C.ar    1  UNL1        0.1402
     22 F         140.4929  142.3982  171.7741 F       1  UNL1       -0.2042
     23 C         142.6555  142.1585  170.3543 C.ar    1  UNL1        0.0312
     24 C         143.3339  142.1197  169.0171 C.ar    1  UNL1        0.0215
     25 C         142.5282  142.2820  167.7624 C.ar    1  UNL1        0.0830
     26 N         143.2066  142.2433  166.4251 N.ar    1  UNL1       -0.2280
     27 C         142.4008  142.4056  165.1704 C.ar    1  UNL1        0.1596
     28 N         143.0792  142.3669  163.8330 N.pl3   1  UNL1       -0.3402
     29 H         144.0533  142.2349  163.7789 H       1  UNL1        0.1438
     30 H         142.5504  142.4734  163.0095 H       1  UNL1        0.1438
@<TRIPOS>BOND
     1     2     1    1
     2     2    16    1
     3    16    17    1
     4    17    18   ar
     5    18    19   ar
     6    19    20   ar
     7    20    21   ar
     8    21    22    1
     9    21    23   ar
    10    23    24   ar
    11    24    25   ar
    12    25    26   ar
    13    26    27   ar
    14    27    28    1
    15     2     3    1
    16     3     4   ar
    17     4     5   ar
    18     5     6    2
    19     5     7   ar
    20     7     8   ar
    21     8     9   ar
    22     9    11    1
    23    11    12   ar
    24    12    13   ar
    25    13    14   ar
    26    14    15   ar
    27    27    17   ar
    28     9     3   ar
    29    15    11   ar
    30    25    19   ar
    31    28    29    1
    32    28    30    1
    33     4    10    1
@<TRIPOS>MOLECULE
*****
 30 33 0 0 0
SMALL
GASTEIGER

@<TRIPOS>ATOM
      1 C         143.5689  145.1870  163.8892 C.3     1  UNL1        0.0539
      2 C         142.3020  144.8291  163.1703 C.3     1  UNL1        0.2052
      3 C         142.3495  144.4077  161.7314 C.ar    1  UNL1        0.0940
      4 N         141.6997  145.2568  160.6794 N.ar    1  UNL1       -0.3204
      5 C         141.7473  144.8353  159.2405 C.ar    1  UNL1        0.2577
      6 O         141.0975  145.6844  158.1885 O.2     1  UNL1       -0.2672
      7 C         142.4446  143.5649  158.8538 C.ar    1  UNL1        0.0621
      8 C         143.0944  142.7158  159.9059 C.ar    1  UNL1        0.0253
      9 C         143.0468  143.1372  161.3447 C.ar    1  UNL1        0.0979
     10 H         141.2420  146.0906  160.9332 H       1  UNL1        0.1688
     11 N         143.6967  142.2881  162.3968 N.ar    1  UNL1       -0.2269
     12 C         145.1717  142.1498  162.6312 C.ar    1  UNL1        0.1021
     13 C         145.3721  141.2045  163.7785 C.ar    1  UNL1        0.0431
     14 C         144.0209  140.7586  164.2532 C.ar    1  UNL1        0.1221
     15 N         142.9853  141.4283  163.3992 N.ar    1  UNL1       -0.1634
     16 O         140.9875  144.8926  163.8901 O.3     1  UNL1       -0.4704
     17 C         140.3415  143.6323  164.3845 C.ar    1  UNL1        0.1698
     18 C         140.6563  143.1167  165.7574 C.ar    1  UNL1        0.0414
     19 C         140.0103  141.8564  166.2517 C.ar    1  UNL1        0.0230
     20 C         140.3252  141.3409  167.6247 C.ar    1  UNL1        0.0312
     21 C         139.6791  140.0806  168.1190 C.ar    1  UNL1        0.1402
     22 F         139.9940  139.5650  169.4920 F       1  UNL1       -0.2042
     23 C         138.7182  139.3359  167.2403 C.ar    1  UNL1        0.0312
     24 C         138.4034  139.8515  165.8673 C.ar    1  UNL1        0.0215
     25 C         139.0494  141.1117  165.3731 C.ar    1  UNL1        0.0830
     26 N         138.7345  141.6273  164.0001 N.ar    1  UNL1       -0.2280
     27 C         139.3806  142.8876  163.5058 C.ar    1  UNL1        0.1596
     28 N         139.0657  143.4032  162.1328 N.pl3   1  UNL1       -0.3402
     29 H         138.4351  142.9144  161.5561 H       1  UNL1        0.1438
     30 H         139.4898  144.2304  161.8084 H       1  UNL1        0.1438
@<TRIPOS>BOND
     1     2     1    1
     2     2    16    1
     3    16    17    1
     4    17    18   ar
     5    18    19   ar
     6    19    20   ar
     7    20    21   ar
     8    21    22    1
     9    21    23   ar
    10    23    24   ar
    11    24    25   ar
    12    25    26   ar
    13    26    27   ar
    14    27    28    1
    15     2     3    1
    16     3     4   ar
    17     4     5   ar
    18     5     6    2
    19     5     7   ar
    20     7     8   ar
    21     8     9   ar
    22     9    11    1
    23    11    12   ar
    24    12    13   ar
    25    13    14   ar
    26    14    15   ar
    27    27    17   ar
    28     9     3   ar
    29    15    11   ar
    30    25    19   ar
    31    28    29    1
    32    28    30    1
    33     4    10    1
@<TRIPOS>MOLECULE
*****
 30 33 0 0 0
SMALL
GASTEIGER

@<TRIPOS>ATOM
      1 C         141.1515  142.8167  164.5379 C.3     1  UNL1        0.0539
      2 C         139.9553  142.3509  165.3138 C.3     1  UNL1        0.2052
      3 C         140.0839  142.0412  166.7760 C.ar    1  UNL1        0.0940
      4 N         140.2638  143.1542  167.7653 N.ar    1  UNL1       -0.3204
      5 C         140.3923  142.8446  169.2274 C.ar    1  UNL1        0.2577
      6 O         140.5723  143.9576  170.2167 O.2     1  UNL1       -0.2672
      7 C         140.3408  141.4220  169.7001 C.ar    1  UNL1        0.0621
      8 C         140.1609  140.3090  168.7107 C.ar    1  UNL1        0.0253
      9 C         140.0324  140.6186  167.2487 C.ar    1  UNL1        0.0979
     10 H         140.2976  144.0880  167.4550 H       1  UNL1        0.1688
     11 N         139.8524  139.5056  166.2592 N.ar    1  UNL1       -0.2269
     12 C         138.5548  138.8415  165.9056 C.ar    1  UNL1        0.1021
     13 C         138.8389  137.7868  164.8776 C.ar    1  UNL1        0.0431
     14 C         140.3122  137.7990  164.5959 C.ar    1  UNL1        0.1221
     15 N         140.9386  138.8613  165.4499 N.ar    1  UNL1       -0.1634
     16 O         138.6306  142.1945  164.6277 O.3     1  UNL1       -0.4704
     17 C         138.5737  142.0094  163.1402 C.ar    1  UNL1        0.1698
     18 C         139.0325  140.7198  162.5268 C.ar    1  UNL1        0.0414
     19 C         138.9755  140.5347  161.0393 C.ar    1  UNL1        0.0230
     20 C         139.4344  139.2452  160.4259 C.ar    1  UNL1        0.0312
     21 C         139.3774  139.0601  158.9385 C.ar    1  UNL1        0.1402
     22 F         139.8363  137.7705  158.3249 F       1  UNL1       -0.2042
     23 C         138.8615  140.1647  158.0645 C.ar    1  UNL1        0.0312
     24 C         138.4027  141.4543  158.6779 C.ar    1  UNL1        0.0215
     25 C         138.4597  141.6393  160.1653 C.ar    1  UNL1        0.0830
     26 N         138.0008  142.9289  160.7788 N.ar    1  UNL1       -0.2280
     27 C         138.0578  143.1140  162.2662 C.ar    1  UNL1        0.1596
     28 N         137.5989  144.4036  162.8798 N.pl3   1  UNL1       -0.3402
     29 H         137.2603  145.1286  162.3061 H       1  UNL1        0.1438
     30 H         137.6363  144.5251  163.8560 H       1  UNL1        0.1438
@<TRIPOS>BOND
     1     2     1    1
     2     2    16    1
     3    16    17    1
     4    17    18   ar
     5    18    19   ar
     6    19    20   ar
     7    20    21   ar
     8    21    22    1
     9    21    23   ar
    10    23    24   ar
    11    24    25   ar
    12    25    26   ar
    13    26    27   ar
    14    27    28    1
    15     2     3    1
    16     3     4   ar
    17     4     5   ar
    18     5     6    2
    19     5     7   ar
    20     7     8   ar
    21     8     9   ar
    22     9    11    1
    23    11    12   ar
    24    12    13   ar
    25    13    14   ar
    26    14    15   ar
    27    27    17   ar
    28     9     3   ar
    29    15    11   ar
    30    25    19   ar
    31    28    29    1
    32    28    30    1
    33     4    10    1
@<TRIPOS>MOLECULE
*****
 30 33 0 0 0
SMALL
GASTEIGER

@<TRIPOS>ATOM
      1 C         140.5063  145.1392  163.6081 C.3     1  UNL1        0.0539
      2 C         141.2690  144.2646  162.6576 C.3     1  UNL1        0.2052
      3 C         140.9824  144.3271  161.1865 C.ar    1  UNL1        0.0940
      4 N         141.8088  145.2092  160.2983 N.ar    1  UNL1       -0.3204
      5 C         141.5222  145.2717  158.8271 C.ar    1  UNL1        0.2577
      6 O         142.3486  146.1538  157.9389 O.2     1  UNL1       -0.2672
      7 C         140.4093  144.4521  158.2444 C.ar    1  UNL1        0.0621
      8 C         139.5830  143.5699  159.1327 C.ar    1  UNL1        0.0253
      9 C         139.8695  143.5075  160.6037 C.ar    1  UNL1        0.0979
     10 H         142.5392  145.7471  160.6808 H       1  UNL1        0.1688
     11 N         139.0431  142.6254  161.4920 N.ar    1  UNL1       -0.2269
     12 C         139.2316  141.1507  161.6919 C.ar    1  UNL1        0.1021
     13 C         138.1882  140.6771  162.6598 C.ar    1  UNL1        0.0431
     14 C         137.3548  141.8590  163.0582 C.ar    1  UNL1        0.1221
     15 N         137.8832  143.0632  162.3364 N.ar    1  UNL1       -0.1634
     16 O         142.3182  143.3275  163.1782 O.3     1  UNL1       -0.4704
     17 C         142.1511  142.6879  164.5247 C.ar    1  UNL1        0.1698
     18 C         140.8955  141.9327  164.8457 C.ar    1  UNL1        0.0414
     19 C         140.7285  141.2931  166.1922 C.ar    1  UNL1        0.0230
     20 C         139.4729  140.5378  166.5132 C.ar    1  UNL1        0.0312
     21 C         139.3059  139.8983  167.8596 C.ar    1  UNL1        0.1402
     22 F         138.0502  139.1430  168.1807 F       1  UNL1       -0.2042
     23 C         140.3944  140.0140  168.8851 C.ar    1  UNL1        0.0312
     24 C         141.6500  140.7693  168.5642 C.ar    1  UNL1        0.0215
     25 C         141.8170  141.4088  167.2177 C.ar    1  UNL1        0.0830
     26 N         143.0727  142.1641  166.8967 N.ar    1  UNL1       -0.2280
     27 C         143.2397  142.8036  165.5502 C.ar    1  UNL1        0.1596
     28 N         144.4953  143.5590  165.2292 N.pl3   1  UNL1       -0.3402
     29 H         145.2098  143.6349  165.9022 H       1  UNL1        0.1438
     30 H         144.6049  143.9787  164.3454 H       1  UNL1        0.1438
@<TRIPOS>BOND
     1     2     1    1
     2     2    16    1
     3    16    17    1
     4    17    18   ar
     5    18    19   ar
     6    19    20   ar
     7    20    21   ar
     8    21    22    1
     9    21    23   ar
    10    23    24   ar
    11    24    25   ar
    12    25    26   ar
    13    26    27   ar
    14    27    28    1
    15     2     3    1
    16     3     4   ar
    17     4     5   ar
    18     5     6    2
    19     5     7   ar
    20     7     8   ar
    21     8     9   ar
    22     9    11    1
    23    11    12   ar
    24    12    13   ar
    25    13    14   ar
    26    14    15   ar
    27    27    17   ar
    28     9     3   ar
    29    15    11   ar
    30    25    19   ar
    31    28    29    1
    32    28    30    1
    33     4    10    1
@<TRIPOS>MOLECULE
*****
 30 33 0 0 0
SMALL
GASTEIGER

@<TRIPOS>ATOM
      1 C         143.8199  138.3619  166.0783 C.3     1  UNL1        0.0539
      2 C         143.0144  139.5990  165.8125 C.3     1  UNL1        0.2052
      3 C         141.5184  139.5563  165.9144 C.ar    1  UNL1        0.0940
      4 N         140.6969  139.1545  164.7254 N.ar    1  UNL1       -0.3204
      5 C         139.2009  139.1118  164.8273 C.ar    1  UNL1        0.2577
      6 O         138.3794  138.7100  163.6384 O.2     1  UNL1       -0.2672
      7 C         138.5266  139.4709  166.1182 C.ar    1  UNL1        0.0621
      8 C         139.3482  139.8726  167.3072 C.ar    1  UNL1        0.0253
      9 C         140.8441  139.9154  167.2052 C.ar    1  UNL1        0.0979
     10 H         141.1395  138.9189  163.8782 H       1  UNL1        0.1688
     11 N         141.6657  140.3171  168.3942 N.ar    1  UNL1       -0.2269
     12 C         142.1123  139.4120  169.5038 C.ar    1  UNL1        0.1021
     13 C         142.9075  140.2301  170.4777 C.ar    1  UNL1        0.0431
     14 C         142.9525  141.6408  169.9699 C.ar    1  UNL1        0.1221
     15 N         142.1850  141.6946  168.6821 N.ar    1  UNL1       -0.1634
     16 O         143.7048  140.8789  165.4447 O.3     1  UNL1       -0.4704
     17 C         143.2944  141.6244  164.2094 C.ar    1  UNL1        0.1698
     18 C         142.3648  142.7968  164.3150 C.ar    1  UNL1        0.0414
     19 C         141.9543  143.5422  163.0797 C.ar    1  UNL1        0.0230
     20 C         141.0247  144.7147  163.1853 C.ar    1  UNL1        0.0312
     21 C         140.6144  145.4600  161.9500 C.ar    1  UNL1        0.1402
     22 F         139.6847  146.6325  162.0556 F       1  UNL1       -0.2042
     23 C         141.1336  145.0329  160.6091 C.ar    1  UNL1        0.0312
     24 C         142.0632  143.8605  160.5035 C.ar    1  UNL1        0.0215
     25 C         142.4736  143.1151  161.7388 C.ar    1  UNL1        0.0830
     26 N         143.4032  141.9426  161.6332 N.ar    1  UNL1       -0.2280
     27 C         143.8136  141.1973  162.8685 C.ar    1  UNL1        0.1596
     28 N         144.7432  140.0248  162.7629 N.pl3   1  UNL1       -0.3402
     29 H         145.0840  139.7445  161.8828 H       1  UNL1        0.1438
     30 H         145.0126  139.5356  163.5737 H       1  UNL1        0.1438
@<TRIPOS>BOND
     1     2     1    1
     2     2    16    1
     3    16    17    1
     4    17    18   ar
     5    18    19   ar
     6    19    20   ar
     7    20    21   ar
     8    21    22    1
     9    21    23   ar
    10    23    24   ar
    11    24    25   ar
    12    25    26   ar
    13    26    27   ar
    14    27    28    1
    15     2     3    1
    16     3     4   ar
    17     4     5   ar
    18     5     6    2
    19     5     7   ar
    20     7     8   ar
    21     8     9   ar
    22     9    11    1
    23    11    12   ar
    24    12    13   ar
    25    13    14   ar
    26    14    15   ar
    27    27    17   ar
    28     9     3   ar
    29    15    11   ar
    30    25    19   ar
    31    28    29    1
    32    28    30    1
    33     4    10    1
@<TRIPOS>MOLECULE
*****
 30 33 0 0 0
SMALL
GASTEIGER

@<TRIPOS>ATOM
      1 C         142.1745  138.6608  164.7568 C.3     1  UNL1        0.0539
      2 C         142.5789  139.7470  165.7090 C.3     1  UNL1        0.2052
      3 C         142.0903  139.7217  167.1270 C.ar    1  UNL1        0.0940
      4 N         143.0168  139.3098  168.2323 N.ar    1  UNL1       -0.3204
      5 C         142.5282  139.2845  169.6503 C.ar    1  UNL1        0.2577
      6 O         143.4548  138.8726  170.7556 O.2     1  UNL1       -0.2672
      7 C         141.1130  139.6710  169.9629 C.ar    1  UNL1        0.0621
      8 C         140.1864  140.0829  168.8575 C.ar    1  UNL1        0.0253
      9 C         140.6750  140.1083  167.4396 C.ar    1  UNL1        0.0979
     10 H         143.9457  139.0561  168.0271 H       1  UNL1        0.1688
     11 N         139.7485  140.5202  166.3342 N.ar    1  UNL1       -0.2269
     12 C         138.8413  139.6110  165.5593 C.ar    1  UNL1        0.1021
     13 C         138.0986  140.4425  164.5558 C.ar    1  UNL1        0.0431
     14 C         138.5467  141.8656  164.7105 C.ar    1  UNL1        0.1221
     15 N         139.5664  141.9136  165.8097 N.ar    1  UNL1       -0.1634
     16 O         143.4719  140.8585  165.2432 O.3     1  UNL1       -0.4704
     17 C         143.1195  141.6373  164.0105 C.ar    1  UNL1        0.1698
     18 C         142.1540  142.7819  164.0971 C.ar    1  UNL1        0.0414
     19 C         141.8015  143.5607  162.8644 C.ar    1  UNL1        0.0230
     20 C         140.8361  144.7054  162.9509 C.ar    1  UNL1        0.0312
     21 C         140.4836  145.4840  161.7183 C.ar    1  UNL1        0.1402
     22 F         139.5181  146.6288  161.8048 F       1  UNL1       -0.2042
     23 C         141.0967  145.1181  160.3991 C.ar    1  UNL1        0.0312
     24 C         142.0622  143.9734  160.3126 C.ar    1  UNL1        0.0215
     25 C         142.4146  143.1947  161.5452 C.ar    1  UNL1        0.0830
     26 N         143.3801  142.0500  161.4587 N.ar    1  UNL1       -0.2280
     27 C         143.7325  141.2713  162.6913 C.ar    1  UNL1        0.1596
     28 N         144.6981  140.1265  162.6048 N.pl3   1  UNL1       -0.3402
     29 H         145.1005  139.8863  161.7390 H       1  UNL1        0.1438
     30 H         144.9294  139.6155  163.4139 H       1  UNL1        0.1438
@<TRIPOS>BOND
     1     2     1    1
     2     2    16    1
     3    16    17    1
     4    17    18   ar
     5    18    19   ar
     6    19    20   ar
     7    20    21   ar
     8    21    22    1
     9    21    23   ar
    10    23    24   ar
    11    24    25   ar
    12    25    26   ar
    13    26    27   ar
    14    27    28    1
    15     2     3    1
    16     3     4   ar
    17     4     5   ar
    18     5     6    2
    19     5     7   ar
    20     7     8   ar
    21     8     9   ar
    22     9    11    1
    23    11    12   ar
    24    12    13   ar
    25    13    14   ar
    26    14    15   ar
    27    27    17   ar
    28     9     3   ar
    29    15    11   ar
    30    25    19   ar
    31    28    29    1
    32    28    30    1
    33     4    10    1
@<TRIPOS>MOLECULE
*****
 30 33 0 0 0
SMALL
GASTEIGER

@<TRIPOS>ATOM
      1 C         140.4974  139.3293  162.1666 C.3     1  UNL1        0.0539
      2 C         141.1172  139.9010  163.4072 C.3     1  UNL1        0.2052
      3 C         142.1104  141.0202  163.3021 C.ar    1  UNL1        0.0940
      4 N         143.5805  140.7230  163.3260 N.ar    1  UNL1       -0.3204
      5 C         144.5737  141.8422  163.2209 C.ar    1  UNL1        0.2577
      6 O         146.0438  141.5451  163.2448 O.2     1  UNL1       -0.2672
      7 C         144.0968  143.2585  163.0919 C.ar    1  UNL1        0.0621
      8 C         142.6267  143.5556  163.0680 C.ar    1  UNL1        0.0253
      9 C         141.6335  142.4365  163.1730 C.ar    1  UNL1        0.0979
     10 H         143.8935  139.7934  163.4107 H       1  UNL1        0.1688
     11 N         140.1634  142.7336  163.1491 N.ar    1  UNL1       -0.2269
     12 C         139.3304  143.1576  164.3222 C.ar    1  UNL1        0.1021
     13 C         137.9204  143.3449  163.8460 C.ar    1  UNL1        0.0431
     14 C         137.8820  143.0367  162.3785 C.ar    1  UNL1        0.1221
     15 N         139.2683  142.6588  161.9478 N.ar    1  UNL1       -0.1634
     16 O         140.7438  139.3536  164.7529 O.3     1  UNL1       -0.4704
     17 C         141.3009  139.9783  165.9976 C.ar    1  UNL1        0.1698
     18 C         140.6185  141.1646  166.6115 C.ar    1  UNL1        0.0414
     19 C         141.1757  141.7894  167.8562 C.ar    1  UNL1        0.0230
     20 C         140.4932  142.9757  168.4701 C.ar    1  UNL1        0.0312
     21 C         141.0504  143.6004  169.7148 C.ar    1  UNL1        0.1402
     22 F         140.3680  144.7868  170.3287 F       1  UNL1       -0.2042
     23 C         142.2900  143.0387  170.3456 C.ar    1  UNL1        0.0312
     24 C         142.9724  141.8524  169.7318 C.ar    1  UNL1        0.0215
     25 C         142.4153  141.2277  168.4871 C.ar    1  UNL1        0.0830
     26 N         143.0977  140.0413  167.8731 N.ar    1  UNL1       -0.2280
     27 C         142.5405  139.4167  166.6285 C.ar    1  UNL1        0.1596
     28 N         143.2230  138.2303  166.0145 N.pl3   1  UNL1       -0.3402
     29 H         144.0366  137.8616  166.4285 H       1  UNL1        0.1438
     30 H         142.8573  137.8203  165.1976 H       1  UNL1        0.1438
@<TRIPOS>BOND
     1     2     1    1
     2     2    16    1
     3    16    17    1
     4    17    18   ar
     5    18    19   ar
     6    19    20   ar
     7    20    21   ar
     8    21    22    1
     9    21    23   ar
    10    23    24   ar
    11    24    25   ar
    12    25    26   ar
    13    26    27   ar
    14    27    28    1
    15     2     3    1
    16     3     4   ar
    17     4     5   ar
    18     5     6    2
    19     5     7   ar
    20     7     8   ar
    21     8     9   ar
    22     9    11    1
    23    11    12   ar
    24    12    13   ar
    25    13    14   ar
    26    14    15   ar
    27    27    17   ar
    28     9     3   ar
    29    15    11   ar
    30    25    19   ar
    31    28    29    1
    32    28    30    1
    33     4    10    1
