@<TRIPOS>MOLECULE
*****
 31 35 0 0 0
SMALL
GASTEIGER

@<TRIPOS>ATOM
      1 C         140.7714  139.4672  163.0974 C.2     1  UNL1        0.3094
      2 N         139.9076  138.3655  162.5589 N.2     1  UNL1       -0.0400
      3 C         138.9673  137.6356  163.4715 C.2     1  UNL1        0.2366
      4 C         138.8906  138.0074  164.9227 C.2     1  UNL1        0.0661
      5 C         139.7544  139.1092  165.4612 C.2     1  UNL1        0.0782
      6 N         139.8960  139.6928  166.8357 N.2     1  UNL1       -0.2489
      7 C         140.9240  140.7834  166.7726 C.2     1  UNL1        0.0777
      8 C         141.4176  140.8738  165.3591 C.2     1  UNL1        0.0107
      9 C         140.6948  139.8391  164.5486 C.3     1  UNL1        0.1691
     10 C         141.3784  141.6342  167.9214 C.ar    1  UNL1        0.0218
     11 C         140.4149  142.5703  168.5886 C.ar    1  UNL1        0.0313
     12 C         140.8693  143.4211  169.7373 C.ar    1  UNL1        0.1424
     13 F         139.9058  144.3572  170.4046 F       1  UNL1       -0.2041
     14 C         142.2874  143.3357  170.2188 C.ar    1  UNL1        0.0592
     15 C         143.2509  142.3996  169.5516 C.ar    1  UNL1        0.1424
     16 F         144.6690  142.3143  170.0332 F       1  UNL1       -0.2041
     17 C         142.7965  141.5489  168.4029 C.ar    1  UNL1        0.0313
     18 C         143.5926  141.6571  160.3595 C.3     1  UNL1        0.0242
     19 C         142.1701  142.1143  160.4923 C.3     1  UNL1        0.0523
     20 C         141.2297  141.3843  161.4049 C.3     1  UNL1        0.2021
     21 N         141.7118  140.1972  162.1848 N.pl3   1  UNL1       -0.1935
     22 C         143.1342  139.7399  162.0520 C.3     1  UNL1        0.2021
     23 C         144.0746  140.4699  161.1394 C.3     1  UNL1        0.0523
     24 C         144.5329  142.3870  159.4469 C.3     1  UNL1        0.0724
     25 C         145.5841  140.2919  153.9238 C.3     1  UNL1        0.0897
     26 N         145.3213  140.8157  155.3046 N.3     1  UNL1       -0.2691
     27 C         146.2629  141.8062  155.9227 C.3     1  UNL1        0.0897
     28 C         146.0001  142.3300  157.3036 C.3     1  UNL1        0.0897
     29 N         144.7957  141.8632  158.0662 N.3     1  UNL1       -0.2703
     30 C         143.8541  140.8726  157.4479 C.3     1  UNL1        0.0897
     31 C         144.1169  140.3489  156.0671 C.3     1  UNL1        0.0897
@<TRIPOS>BOND
     1    25    26    1
     2    26    27    1
     3    27    28    1
     4    28    29    1
     5    29    24    1
     6    24    18    1
     7    18    19    1
     8    19    20    1
     9    20    21    1
    10    21     1    1
    11     1     2    2
    12     2     3    1
    13     3     4    2
    14     4     5    1
    15     5     6    2
    16     6     7    1
    17     7    10    1
    18    10    11   ar
    19    11    12   ar
    20    12    13    1
    21    12    14   ar
    22    14    15   ar
    23    15    16    1
    24    15    17   ar
    25     7     8    2
    26     8     9    1
    27    21    22    1
    28    22    23    1
    29    29    30    1
    30    30    31    1
    31    31    26    1
    32    23    18    1
    33     9     1    1
    34     9     5    1
    35    17    10   ar
@<TRIPOS>MOLECULE
*****
 31 35 0 0 0
SMALL
GASTEIGER

@<TRIPOS>ATOM
      1 C         140.7467  139.4358  163.0939 C.2     1  UNL1        0.3094
      2 N         139.8681  138.3408  162.5658 N.2     1  UNL1       -0.0400
      3 C         138.9212  137.6292  163.4862 C.2     1  UNL1        0.2366
      4 C         138.8530  138.0128  164.9347 C.2     1  UNL1        0.0661
      5 C         139.7315  139.1078  165.4629 C.2     1  UNL1        0.0782
      6 N         139.8839  139.6998  166.8326 N.2     1  UNL1       -0.2489
      7 C         140.9249  140.7772  166.7588 C.2     1  UNL1        0.0777
      8 C         141.4160  140.8511  165.3434 C.2     1  UNL1        0.0107
      9 C         140.6784  139.8193  164.5425 C.3     1  UNL1        0.1691
     10 C         141.3928  141.6309  167.9001 C.ar    1  UNL1        0.0218
     11 C         142.8039  141.5139  168.3949 C.ar    1  UNL1        0.0313
     12 C         143.2717  142.3675  169.5362 C.ar    1  UNL1        0.1424
     13 F         144.6829  142.2505  170.0311 F       1  UNL1       -0.2041
     14 C         142.3283  143.3382  170.1825 C.ar    1  UNL1        0.0592
     15 C         140.9172  143.4553  169.6877 C.ar    1  UNL1        0.1424
     16 F         139.9738  144.4259  170.3340 F       1  UNL1       -0.2041
     17 C         140.4494  142.6016  168.5464 C.ar    1  UNL1        0.0313
     18 C         143.5874  141.5704  160.3327 C.3     1  UNL1        0.0242
     19 C         144.0754  140.4289  161.1747 C.3     1  UNL1        0.0523
     20 C         143.1285  139.7174  162.0950 C.3     1  UNL1        0.2021
     21 N         141.6936  140.1473  162.1735 N.pl3   1  UNL1       -0.1935
     22 C         141.2056  141.2888  161.3316 C.3     1  UNL1        0.2021
     23 C         142.1525  142.0004  160.4112 C.3     1  UNL1        0.0523
     24 C         144.5343  142.2819  159.4124 C.3     1  UNL1        0.0724
     25 C         145.5003  140.1662  153.8816 C.3     1  UNL1        0.0897
     26 N         145.2588  140.6951  155.2643 N.3     1  UNL1       -0.2691
     27 C         146.1333  141.7824  155.8146 C.3     1  UNL1        0.0897
     28 C         145.8918  142.3114  157.1974 C.3     1  UNL1        0.0897
     29 N         144.7758  141.7530  158.0297 N.3     1  UNL1       -0.2703
     30 C         143.9013  140.6656  157.4793 C.3     1  UNL1        0.0897
     31 C         144.1428  140.1367  156.0966 C.3     1  UNL1        0.0897
@<TRIPOS>BOND
     1    25    26    1
     2    26    27    1
     3    27    28    1
     4    28    29    1
     5    29    24    1
     6    24    18    1
     7    18    19    1
     8    19    20    1
     9    20    21    1
    10    21     1    1
    11     1     2    2
    12     2     3    1
    13     3     4    2
    14     4     5    1
    15     5     6    2
    16     6     7    1
    17     7    10    1
    18    10    11   ar
    19    11    12   ar
    20    12    13    1
    21    12    14   ar
    22    14    15   ar
    23    15    16    1
    24    15    17   ar
    25     7     8    2
    26     8     9    1
    27    21    22    1
    28    22    23    1
    29    29    30    1
    30    30    31    1
    31    31    26    1
    32    23    18    1
    33     9     1    1
    34     9     5    1
    35    17    10   ar
@<TRIPOS>MOLECULE
*****
 31 35 0 0 0
SMALL
GASTEIGER

@<TRIPOS>ATOM
      1 C         140.0370  139.8200  163.1474 C.2     1  UNL1        0.3094
      2 N         139.3448  138.5769  162.6726 N.2     1  UNL1       -0.0400
      3 C         138.8560  137.5648  163.6659 C.2     1  UNL1        0.2366
      4 C         139.0595  137.7959  165.1340 C.2     1  UNL1        0.0661
      5 C         139.7517  139.0390  165.6087 C.2     1  UNL1        0.0782
      6 N         140.0924  139.5357  166.9825 N.2     1  UNL1       -0.2489
      7 C         140.7918  140.8548  166.8382 C.2     1  UNL1        0.0777
      8 C         140.8833  141.1734  165.3753 C.2     1  UNL1        0.0107
      9 C         140.2405  140.0511  164.6154 C.3     1  UNL1        0.1691
     10 C         141.3090  141.7060  167.9599 C.ar    1  UNL1        0.0218
     11 C         142.7170  141.5310  168.4465 C.ar    1  UNL1        0.0313
     12 C         143.2340  142.3821  169.5682 C.ar    1  UNL1        0.1424
     13 F         144.6421  142.2072  170.0548 F       1  UNL1       -0.2041
     14 C         142.3430  143.4082  170.2033 C.ar    1  UNL1        0.0592
     15 C         140.9350  143.5831  169.7167 C.ar    1  UNL1        0.1424
     16 F         140.0440  144.6092  170.3518 F       1  UNL1       -0.2041
     17 C         140.4180  142.7320  168.5950 C.ar    1  UNL1        0.0313
     18 C         141.5036  142.8564  160.1674 C.3     1  UNL1        0.0242
     19 C         142.2680  141.5833  160.3790 C.3     1  UNL1        0.0523
     20 C         141.7792  140.5712  161.3723 C.3     1  UNL1        0.2021
     21 N         140.5259  140.8322  162.1540 N.pl3   1  UNL1       -0.1935
     22 C         139.7614  142.1053  161.9425 C.3     1  UNL1        0.2021
     23 C         140.2503  143.1175  160.9491 C.3     1  UNL1        0.0523
     24 C         141.9924  143.8685  159.1741 C.3     1  UNL1        0.0724
     25 C         138.2500  146.0452  155.0201 C.3     1  UNL1        0.0897
     26 N         139.1856  145.5010  156.0586 N.3     1  UNL1       -0.2691
     27 C         139.9764  146.4394  156.9210 C.3     1  UNL1        0.0897
     28 C         140.9121  145.8953  157.9596 C.3     1  UNL1        0.0897
     29 N         141.0568  144.4127  158.1356 N.3     1  UNL1       -0.2703
     30 C         140.2659  143.4743  157.2731 C.3     1  UNL1        0.0897
     31 C         139.3303  144.0184  156.2346 C.3     1  UNL1        0.0897
@<TRIPOS>BOND
     1    25    26    1
     2    26    27    1
     3    27    28    1
     4    28    29    1
     5    29    24    1
     6    24    18    1
     7    18    19    1
     8    19    20    1
     9    20    21    1
    10    21     1    1
    11     1     2    2
    12     2     3    1
    13     3     4    2
    14     4     5    1
    15     5     6    2
    16     6     7    1
    17     7    10    1
    18    10    11   ar
    19    11    12   ar
    20    12    13    1
    21    12    14   ar
    22    14    15   ar
    23    15    16    1
    24    15    17   ar
    25     7     8    2
    26     8     9    1
    27    21    22    1
    28    22    23    1
    29    29    30    1
    30    30    31    1
    31    31    26    1
    32    23    18    1
    33     9     1    1
    34     9     5    1
    35    17    10   ar
@<TRIPOS>MOLECULE
*****
 31 35 0 0 0
SMALL
GASTEIGER

@<TRIPOS>ATOM
      1 C         139.8650  142.2312  162.8027 C.2     1  UNL1        0.3094
      2 N         138.8733  143.1605  162.1680 N.2     1  UNL1       -0.0400
      3 C         138.1772  144.1964  163.0000 C.2     1  UNL1        0.2366
      4 C         138.4728  144.3030  164.4667 C.2     1  UNL1        0.0661
      5 C         139.4645  143.3737  165.1014 C.2     1  UNL1        0.0782
      6 N         139.9563  143.2421  166.5123 N.2     1  UNL1       -0.2489
      7 C         140.9563  142.1248  166.5524 C.2     1  UNL1        0.0777
      8 C         141.0827  141.5659  165.1662 C.2     1  UNL1        0.0107
      9 C         140.1606  142.3378  164.2694 C.3     1  UNL1        0.1691
     10 C         141.6996  141.6499  167.7657 C.ar    1  UNL1        0.0218
     11 C         141.2832  140.3827  168.4520 C.ar    1  UNL1        0.0313
     12 C         142.0265  139.9078  169.6652 C.ar    1  UNL1        0.1424
     13 F         141.6101  138.6407  170.3515 F       1  UNL1       -0.2041
     14 C         143.1861  140.7001  170.1922 C.ar    1  UNL1        0.0592
     15 C         143.6024  141.9672  169.5059 C.ar    1  UNL1        0.1424
     16 F         144.7620  142.7594  170.0329 F       1  UNL1       -0.2041
     17 C         142.8592  142.4421  168.2927 C.ar    1  UNL1        0.0313
     18 C         141.9535  139.1233  160.3067 C.3     1  UNL1        0.0242
     19 C         140.8931  138.7115  161.2845 C.3     1  UNL1        0.0523
     20 C         140.1969  139.7474  162.1164 C.3     1  UNL1        0.2021
     21 N         140.5612  141.1952  161.9707 N.pl3   1  UNL1       -0.1935
     22 C         141.6216  141.6070  160.9930 C.3     1  UNL1        0.2021
     23 C         142.3178  140.5711  160.1610 C.3     1  UNL1        0.0523
     24 C         142.6496  138.0873  159.4748 C.3     1  UNL1        0.0724
     25 C         140.2572  136.3213  154.2636 C.3     1  UNL1        0.0897
     26 N         140.8553  136.7628  155.5663 N.3     1  UNL1       -0.2691
     27 C         142.2024  136.2523  155.9844 C.3     1  UNL1        0.0897
     28 C         142.8005  136.6938  157.2873 C.3     1  UNL1        0.0897
     29 N         142.0516  137.6458  158.1720 N.3     1  UNL1       -0.2703
     30 C         140.7044  138.1563  157.7539 C.3     1  UNL1        0.0897
     31 C         140.1064  137.7148  156.4511 C.3     1  UNL1        0.0897
@<TRIPOS>BOND
     1    25    26    1
     2    26    27    1
     3    27    28    1
     4    28    29    1
     5    29    24    1
     6    24    18    1
     7    18    19    1
     8    19    20    1
     9    20    21    1
    10    21     1    1
    11     1     2    2
    12     2     3    1
    13     3     4    2
    14     4     5    1
    15     5     6    2
    16     6     7    1
    17     7    10    1
    18    10    11   ar
    19    11    12   ar
    20    12    13    1
    21    12    14   ar
    22    14    15   ar
    23    15    16    1
    24    15    17   ar
    25     7     8    2
    26     8     9    1
    27    21    22    1
    28    22    23    1
    29    29    30    1
    30    30    31    1
    31    31    26    1
    32    23    18    1
    33     9     1    1
    34     9     5    1
    35    17    10   ar
@<TRIPOS>MOLECULE
*****
 31 35 0 0 0
SMALL
GASTEIGER

@<TRIPOS>ATOM
      1 C         140.9621  140.3676  162.6322 C.2     1  UNL1        0.3094
      2 N         140.7250  139.0708  161.9166 N.2     1  UNL1       -0.0400
      3 C         140.6970  137.7837  162.6863 C.2     1  UNL1        0.2366
      4 C         140.9063  137.7933  164.1716 C.2     1  UNL1        0.0661
      5 C         141.1434  139.0901  164.8872 C.2     1  UNL1        0.0782
      6 N         141.3798  139.4098  166.3335 N.2     1  UNL1       -0.2489
      7 C         141.5539  140.8945  166.4577 C.2     1  UNL1        0.0777
      8 C         141.4250  141.4924  165.0881 C.2     1  UNL1        0.0107
      9 C         141.1713  140.3772  164.1175 C.3     1  UNL1        0.1691
     10 C         141.8116  141.6487  167.7285 C.ar    1  UNL1        0.0218
     11 C         140.6805  142.3339  168.4365 C.ar    1  UNL1        0.0313
     12 C         140.9383  143.0881  169.7071 C.ar    1  UNL1        0.1424
     13 F         139.8072  143.7733  170.4152 F       1  UNL1       -0.2041
     14 C         142.3270  143.1572  170.2698 C.ar    1  UNL1        0.0592
     15 C         143.4580  142.4721  169.5618 C.ar    1  UNL1        0.1424
     16 F         144.8468  142.5412  170.1244 F       1  UNL1       -0.2041
     17 C         143.2003  141.7179  168.2911 C.ar    1  UNL1        0.0313
     18 C         141.0459  144.2291  160.3231 C.3     1  UNL1        0.0242
     19 C         142.3155  143.6668  160.8905 C.3     1  UNL1        0.0523
     20 C         142.2875  142.3797  161.6602 C.3     1  UNL1        0.2021
     21 N         140.9900  141.6548  161.8624 N.pl3   1  UNL1       -0.1935
     22 C         139.7204  142.2170  161.2950 C.3     1  UNL1        0.2021
     23 C         139.7483  143.5042  160.5253 C.3     1  UNL1        0.0523
     24 C         141.0738  145.5163  159.5534 C.3     1  UNL1        0.0724
     25 C         141.3798  145.4228  153.5620 C.3     1  UNL1        0.0897
     26 N         141.3034  145.4462  155.0598 N.3     1  UNL1       -0.2691
     27 C         140.2113  146.2145  155.7431 C.3     1  UNL1        0.0897
     28 C         140.1347  146.2379  157.2410 C.3     1  UNL1        0.0897
     29 N         141.1503  145.4929  158.0556 N.3     1  UNL1       -0.2703
     30 C         142.2425  144.7245  157.3722 C.3     1  UNL1        0.0897
     31 C         142.3189  144.7011  155.8744 C.3     1  UNL1        0.0897
@<TRIPOS>BOND
     1    25    26    1
     2    26    27    1
     3    27    28    1
     4    28    29    1
     5    29    24    1
     6    24    18    1
     7    18    19    1
     8    19    20    1
     9    20    21    1
    10    21     1    1
    11     1     2    2
    12     2     3    1
    13     3     4    2
    14     4     5    1
    15     5     6    2
    16     6     7    1
    17     7    10    1
    18    10    11   ar
    19    11    12   ar
    20    12    13    1
    21    12    14   ar
    22    14    15   ar
    23    15    16    1
    24    15    17   ar
    25     7     8    2
    26     8     9    1
    27    21    22    1
    28    22    23    1
    29    29    30    1
    30    30    31    1
    31    31    26    1
    32    23    18    1
    33     9     1    1
    34     9     5    1
    35    17    10   ar
@<TRIPOS>MOLECULE
*****
 31 35 0 0 0
SMALL
GASTEIGER

@<TRIPOS>ATOM
      1 C         139.8590  142.1223  162.7986 C.2     1  UNL1        0.3094
      2 N         138.8459  143.0264  162.1614 N.2     1  UNL1       -0.0400
      3 C         138.1306  144.0526  162.9892 C.2     1  UNL1        0.2366
      4 C         138.4285  144.1747  164.4542 C.2     1  UNL1        0.0661
      5 C         139.4416  143.2706  165.0915 C.2     1  UNL1        0.0782
      6 N         139.9405  143.1582  166.5016 N.2     1  UNL1       -0.2489
      7 C         140.9640  142.0626  166.5453 C.2     1  UNL1        0.0777
      8 C         141.0978  141.4977  165.1622 C.2     1  UNL1        0.0107
      9 C         140.1569  142.2444  164.2637 C.3     1  UNL1        0.1691
     10 C         141.7210  141.6110  167.7591 C.ar    1  UNL1        0.0218
     11 C         142.8406  142.4500  168.2999 C.ar    1  UNL1        0.0313
     12 C         143.5975  141.9985  169.5137 C.ar    1  UNL1        0.1424
     13 F         144.7172  142.8375  170.0545 F       1  UNL1       -0.2041
     14 C         143.2347  140.7080  170.1866 C.ar    1  UNL1        0.0592
     15 C         142.1150  139.8690  169.6459 C.ar    1  UNL1        0.1424
     16 F         141.7523  138.5784  170.3189 F       1  UNL1       -0.2041
     17 C         141.3582  140.3205  168.4321 C.ar    1  UNL1        0.0313
     18 C         142.0048  139.0435  160.3153 C.3     1  UNL1        0.0242
     19 C         140.8959  138.6252  161.2348 C.3     1  UNL1        0.0523
     20 C         140.1806  139.6515  162.0625 C.3     1  UNL1        0.2021
     21 N         140.5743  141.0960  161.9708 N.pl3   1  UNL1       -0.1935
     22 C         141.6831  141.5143  161.0513 C.3     1  UNL1        0.2021
     23 C         142.3984  140.4880  160.2235 C.3     1  UNL1        0.0523
     24 C         142.7200  138.0172  159.4875 C.3     1  UNL1        0.0724
     25 C         140.3668  136.1947  154.2779 C.3     1  UNL1        0.0897
     26 N         140.9551  136.6503  155.5803 N.3     1  UNL1       -0.2691
     27 C         142.2384  136.0509  156.0740 C.3     1  UNL1        0.0897
     28 C         142.8267  136.5065  157.3765 C.3     1  UNL1        0.0897
     29 N         142.1317  137.5616  158.1851 N.3     1  UNL1       -0.2703
     30 C         140.8484  138.1610  157.6913 C.3     1  UNL1        0.0897
     31 C         140.2601  137.7054  156.3889 C.3     1  UNL1        0.0897
@<TRIPOS>BOND
     1    25    26    1
     2    26    27    1
     3    27    28    1
     4    28    29    1
     5    29    24    1
     6    24    18    1
     7    18    19    1
     8    19    20    1
     9    20    21    1
    10    21     1    1
    11     1     2    2
    12     2     3    1
    13     3     4    2
    14     4     5    1
    15     5     6    2
    16     6     7    1
    17     7    10    1
    18    10    11   ar
    19    11    12   ar
    20    12    13    1
    21    12    14   ar
    22    14    15   ar
    23    15    16    1
    24    15    17   ar
    25     7     8    2
    26     8     9    1
    27    21    22    1
    28    22    23    1
    29    29    30    1
    30    30    31    1
    31    31    26    1
    32    23    18    1
    33     9     1    1
    34     9     5    1
    35    17    10   ar
@<TRIPOS>MOLECULE
*****
 31 35 0 0 0
SMALL
GASTEIGER

@<TRIPOS>ATOM
      1 C         141.7770  140.4356  162.3790 C.2     1  UNL1        0.3094
      2 N         142.3501  139.3129  161.5661 N.2     1  UNL1       -0.0400
      3 C         142.6859  138.0068  162.2229 C.2     1  UNL1        0.2366
      4 C         142.4486  137.8235  163.6926 C.2     1  UNL1        0.0661
      5 C         141.8754  138.9463  164.5055 C.2     1  UNL1        0.0782
      6 N         141.5342  139.0586  165.9618 N.2     1  UNL1       -0.2489
      7 C         140.9875  140.4340  166.2052 C.2     1  UNL1        0.0777
      8 C         140.9908  141.1719  164.8992 C.2     1  UNL1        0.0107
      9 C         141.5397  140.2523  163.8487 C.3     1  UNL1        0.1691
     10 C         140.5195  140.9764  167.5231 C.ar    1  UNL1        0.0218
     11 C         140.9678  142.3339  167.9772 C.ar    1  UNL1        0.0313
     12 C         140.4998  142.8762  169.2951 C.ar    1  UNL1        0.1424
     13 F         140.9481  144.2338  169.7493 F       1  UNL1       -0.2041
     14 C         139.5837  142.0611  170.1589 C.ar    1  UNL1        0.0592
     15 C         139.1354  140.7036  169.7048 C.ar    1  UNL1        0.1424
     16 F         138.2193  139.8884  170.5686 F       1  UNL1       -0.2041
     17 C         139.6034  140.1613  168.3869 C.ar    1  UNL1        0.0313
     18 C         140.7695  144.3540  160.4087 C.3     1  UNL1        0.0242
     19 C         139.8375  143.1861  160.2759 C.3     1  UNL1        0.0523
     20 C         140.1733  141.8801  160.9326 C.3     1  UNL1        0.2021
     21 N         141.4412  141.7418  161.7223 N.pl3   1  UNL1       -0.1935
     22 C         142.3731  142.9096  161.8551 C.3     1  UNL1        0.2021
     23 C         142.0373  144.2157  161.1984 C.3     1  UNL1        0.0523
     24 C         140.4336  145.6601  159.7520 C.3     1  UNL1        0.0724
     25 C         141.1497  146.3119  153.8307 C.3     1  UNL1        0.0897
     26 N         140.9707  146.1489  155.3110 N.3     1  UNL1       -0.2691
     27 C         139.7823  146.7578  155.9942 C.3     1  UNL1        0.0897
     28 C         139.6032  146.5949  157.4746 C.3     1  UNL1        0.0897
     29 N         140.6126  145.8230  158.2717 N.3     1  UNL1       -0.2703
     30 C         141.8011  145.2141  157.5884 C.3     1  UNL1        0.0897
     31 C         141.9801  145.3770  156.1080 C.3     1  UNL1        0.0897
@<TRIPOS>BOND
     1    25    26    1
     2    26    27    1
     3    27    28    1
     4    28    29    1
     5    29    24    1
     6    24    18    1
     7    18    19    1
     8    19    20    1
     9    20    21    1
    10    21     1    1
    11     1     2    2
    12     2     3    1
    13     3     4    2
    14     4     5    1
    15     5     6    2
    16     6     7    1
    17     7    10    1
    18    10    11   ar
    19    11    12   ar
    20    12    13    1
    21    12    14   ar
    22    14    15   ar
    23    15    16    1
    24    15    17   ar
    25     7     8    2
    26     8     9    1
    27    21    22    1
    28    22    23    1
    29    29    30    1
    30    30    31    1
    31    31    26    1
    32    23    18    1
    33     9     1    1
    34     9     5    1
    35    17    10   ar
@<TRIPOS>MOLECULE
*****
 31 35 0 0 0
SMALL
GASTEIGER

@<TRIPOS>ATOM
      1 C         142.5071  138.7051  157.2344 C.2     1  UNL1        0.3094
      2 N         143.0986  139.9387  156.6195 N.2     1  UNL1       -0.0400
      3 C         144.1650  139.8169  155.5716 C.2     1  UNL1        0.2366
      4 C         144.6398  138.4615  155.1387 C.2     1  UNL1        0.0661
      5 C         144.0482  137.2279  155.7537 C.2     1  UNL1        0.0782
      6 N         144.3136  135.7686  155.5298 N.2     1  UNL1       -0.2489
      7 C         143.4113  134.9885  156.4394 C.2     1  UNL1        0.0777
      8 C         142.5882  135.9657  157.2253 C.2     1  UNL1        0.0107
      9 C         142.9819  137.3497  156.8015 C.3     1  UNL1        0.1691
     10 C         143.3439  133.4937  156.5445 C.ar    1  UNL1        0.0218
     11 C         144.3616  132.7525  157.3597 C.ar    1  UNL1        0.0313
     12 C         144.2942  131.2577  157.4648 C.ar    1  UNL1        0.1424
     13 F         145.3120  130.5165  158.2801 F       1  UNL1       -0.2041
     14 C         143.2090  130.5042  156.7546 C.ar    1  UNL1        0.0592
     15 C         142.1912  131.2453  155.9393 C.ar    1  UNL1        0.1424
     16 F         141.1060  130.4918  155.2291 F       1  UNL1       -0.2041
     17 C         142.2586  132.7401  155.8342 C.ar    1  UNL1        0.0313
     18 C         139.3079  139.0704  160.3780 C.3     1  UNL1        0.0242
     19 C         140.6958  138.6534  160.7652 C.3     1  UNL1        0.0523
     20 C         141.7622  138.5317  159.7174 C.3     1  UNL1        0.2021
     21 N         141.4407  138.8269  158.2823 N.pl3   1  UNL1       -0.1935
     22 C         140.0528  139.2438  157.8950 C.3     1  UNL1        0.2021
     23 C         138.9864  139.3655  158.9429 C.3     1  UNL1        0.0523
     24 C         138.2416  139.1921  161.4259 C.3     1  UNL1        0.0724
     25 C         137.8777  144.1585  164.7728 C.3     1  UNL1        0.0897
     26 N         137.9687  142.9169  163.9361 N.3     1  UNL1       -0.2691
     27 C         137.8826  143.0117  162.4416 C.3     1  UNL1        0.0897
     28 C         137.9735  141.7701  161.6048 C.3     1  UNL1        0.0897
     29 N         138.1506  140.4337  162.2626 N.3     1  UNL1       -0.2703
     30 C         138.2367  140.3389  163.7572 C.3     1  UNL1        0.0897
     31 C         138.1458  141.5805  164.5939 C.3     1  UNL1        0.0897
@<TRIPOS>BOND
     1    25    26    1
     2    26    27    1
     3    27    28    1
     4    28    29    1
     5    29    24    1
     6    24    18    1
     7    18    19    1
     8    19    20    1
     9    20    21    1
    10    21     1    1
    11     1     2    2
    12     2     3    1
    13     3     4    2
    14     4     5    1
    15     5     6    2
    16     6     7    1
    17     7    10    1
    18    10    11   ar
    19    11    12   ar
    20    12    13    1
    21    12    14   ar
    22    14    15   ar
    23    15    16    1
    24    15    17   ar
    25     7     8    2
    26     8     9    1
    27    21    22    1
    28    22    23    1
    29    29    30    1
    30    30    31    1
    31    31    26    1
    32    23    18    1
    33     9     1    1
    34     9     5    1
    35    17    10   ar
@<TRIPOS>MOLECULE
*****
 31 35 0 0 0
SMALL
GASTEIGER

@<TRIPOS>ATOM
      1 C         140.8188  144.0345  160.7819 C.2     1  UNL1        0.3094
      2 N         140.5648  145.5119  160.7293 N.2     1  UNL1       -0.0400
      3 C         139.7682  146.1750  161.8136 C.2     1  UNL1        0.2366
      4 C         139.2257  145.3607  162.9505 C.2     1  UNL1        0.0661
      5 C         139.4797  143.8834  163.0031 C.2     1  UNL1        0.0782
      6 N         139.0752  142.8299  163.9914 N.2     1  UNL1       -0.2489
      7 C         139.6217  141.5157  163.5178 C.2     1  UNL1        0.0777
      8 C         140.3640  141.7569  162.2369 C.2     1  UNL1        0.0107
      9 C         140.2762  143.2203  161.9188 C.3     1  UNL1        0.1691
     10 C         139.4551  140.1926  164.2046 C.ar    1  UNL1        0.0218
     11 C         138.3931  140.0184  165.2495 C.ar    1  UNL1        0.0313
     12 C         138.2265  138.6953  165.9362 C.ar    1  UNL1        0.1424
     13 F         137.1645  138.5211  166.9811 F       1  UNL1       -0.2041
     14 C         139.1220  137.5465  165.5782 C.ar    1  UNL1        0.0592
     15 C         140.1841  137.7207  164.5334 C.ar    1  UNL1        0.1424
     16 F         141.0796  136.5718  164.1753 F       1  UNL1       -0.2041
     17 C         140.3506  139.0437  163.8466 C.ar    1  UNL1        0.0313
     18 C         143.2085  142.0450  157.5289 C.3     1  UNL1        0.0242
     19 C         143.8473  142.3443  158.8528 C.3     1  UNL1        0.0523
     20 C         143.0507  143.0075  159.9370 C.3     1  UNL1        0.2021
     21 N         141.6153  143.3714  159.6975 N.pl3   1  UNL1       -0.1935
     22 C         140.9766  143.0721  158.3738 C.3     1  UNL1        0.2021
     23 C         141.7731  142.4089  157.2894 C.3     1  UNL1        0.0523
     24 C         144.0050  141.3819  156.4447 C.3     1  UNL1        0.0724
     25 C         143.8217  135.4187  155.8071 C.3     1  UNL1        0.0897
     26 N         143.8675  136.9095  155.9665 N.3     1  UNL1       -0.2691
     27 C         144.7759  137.7289  155.0986 C.3     1  UNL1        0.0897
     28 C         144.8217  139.2198  155.2579 C.3     1  UNL1        0.0897
     29 N         143.9592  139.8911  156.2853 N.3     1  UNL1       -0.2703
     30 C         143.0508  139.0716  157.1532 C.3     1  UNL1        0.0897
     31 C         143.0050  137.5808  156.9938 C.3     1  UNL1        0.0897
@<TRIPOS>BOND
     1    25    26    1
     2    26    27    1
     3    27    28    1
     4    28    29    1
     5    29    24    1
     6    24    18    1
     7    18    19    1
     8    19    20    1
     9    20    21    1
    10    21     1    1
    11     1     2    2
    12     2     3    1
    13     3     4    2
    14     4     5    1
    15     5     6    2
    16     6     7    1
    17     7    10    1
    18    10    11   ar
    19    11    12   ar
    20    12    13    1
    21    12    14   ar
    22    14    15   ar
    23    15    16    1
    24    15    17   ar
    25     7     8    2
    26     8     9    1
    27    21    22    1
    28    22    23    1
    29    29    30    1
    30    30    31    1
    31    31    26    1
    32    23    18    1
    33     9     1    1
    34     9     5    1
    35    17    10   ar
