@<TRIPOS>MOLECULE
*****
 36 39 0 0 0
SMALL
GASTEIGER

@<TRIPOS>ATOM
      1 C         138.5158  144.3231  162.9913 C.ar    1  UNL1        0.1521
      2 C         139.3269  145.4794  162.4860 C.ar    1  UNL1        0.0395
      3 C         140.0842  145.3579  161.1969 C.ar    1  UNL1        0.0179
      4 C         140.0304  144.0802  160.4131 C.ar    1  UNL1        0.0520
      5 C         139.2194  142.9239  160.9183 C.ar    1  UNL1        0.0324
      6 C         138.4621  143.0453  162.2075 C.ar    1  UNL1        0.0861
      7 N         140.7877  143.9586  159.1240 N.am    1  UNL1       -0.2804
      8 C         142.2827  143.8378  159.1410 C.2     1  UNL1        0.2494
      9 O         143.0204  143.8384  160.4470 O.2     1  UNL1       -0.2698
     10 H         140.3035  143.9582  158.2668 H       1  UNL1        0.1552
     11 C         143.0401  143.7162  157.8519 C.2     1  UNL1        0.0549
     12 C         143.3890  142.3611  157.3118 C.2     1  UNL1       -0.0041
     13 C         144.1463  142.2396  156.0228 C.3     1  UNL1        0.0991
     14 N         145.5051  141.6044  156.0083 N.3     1  UNL1       -0.2665
     15 C         146.6877  142.3506  156.5512 C.3     1  UNL1        0.0899
     16 C         145.6813  140.2230  155.4509 C.3     1  UNL1        0.0899
     17 C         138.4601  144.9116  165.5213 C.3     1  UNL1        0.2525
     18 O         137.7586  144.4446  164.2804 O.3     1  UNL1       -0.4702
     19 N         137.6511  141.8891  162.7126 N.pl3   1  UNL1       -0.2801
     20 H         136.6680  141.9419  162.7168 H       1  UNL1        0.1552
     21 C         138.3378  140.6523  163.2114 C.ar    1  UNL1        0.2208
     22 N         138.0919  139.3346  162.5383 N.ar    1  UNL1       -0.2111
     23 C         138.7786  138.0979  163.0371 C.ar    1  UNL1        0.1147
     24 C         139.7113  138.1788  164.2091 C.ar    1  UNL1        0.0946
     25 CL        140.3980  136.9421  164.7079 Cl      1  UNL1       -0.0790
     26 C         139.9572  139.4966  164.8823 C.ar    1  UNL1        0.0992
     27 N         139.2705  140.7332  164.3834 N.ar    1  UNL1       -0.2126
     28 C         140.8899  139.5775  166.0543 C.ar    1  UNL1        0.0572
     29 C         142.3836  139.4506  166.0028 C.ar    1  UNL1        0.1235
     30 N         142.9094  139.5942  167.4002 N.ar    1  UNL1       -0.1634
     31 N         141.7407  139.8100  168.3154 N.ar    1  UNL1       -0.2281
     32 C         141.6517  140.0145  169.7987 C.ar    1  UNL1        0.1004
     33 C         140.3146  140.2087  170.4501 C.ar    1  UNL1        0.0207
     34 C         139.0665  140.1984  169.6183 C.ar    1  UNL1        0.0031
     35 C         139.1554  139.9939  168.1350 C.ar    1  UNL1        0.0193
     36 C         140.4925  139.7997  167.4836 C.ar    1  UNL1        0.0858
@<TRIPOS>BOND
     1    17    18    1
     2    18     1    1
     3     1     2   ar
     4     2     3   ar
     5     3     4   ar
     6     4     7    1
     7     7     8   am
     8     8     9    2
     9     8    11    1
    10    11    12    2
    11    12    13    1
    12    13    14    1
    13    14    15    1
    14    14    16    1
    15     4     5   ar
    16     5     6   ar
    17     6    19    1
    18    19    21    1
    19    21    22   ar
    20    22    23   ar
    21    23    24   ar
    22    24    25    1
    23    24    26   ar
    24    26    28    1
    25    28    29   ar
    26    29    30   ar
    27    30    31   ar
    28    31    32   ar
    29    32    33   ar
    30    33    34   ar
    31    34    35   ar
    32    35    36   ar
    33    26    27   ar
    34     6     1   ar
    35    27    21   ar
    36    36    28   ar
    37    36    31   ar
    38     7    10    1
    39    19    20    1
@<TRIPOS>MOLECULE
*****
 36 39 0 0 0
SMALL
GASTEIGER

@<TRIPOS>ATOM
      1 C         142.3907  143.4700  161.3261 C.ar    1  UNL1        0.1521
      2 C         141.8167  143.5404  159.9420 C.ar    1  UNL1        0.0395
      3 C         142.6884  143.2616  158.7535 C.ar    1  UNL1        0.0179
      4 C         144.1340  142.9123  158.9490 C.ar    1  UNL1        0.0520
      5 C         144.7079  142.8419  160.3331 C.ar    1  UNL1        0.0324
      6 C         143.8363  143.1207  161.5217 C.ar    1  UNL1        0.0861
      7 N         145.0056  142.6335  157.7606 N.am    1  UNL1       -0.2804
      8 C         145.1320  141.2343  157.2351 C.2     1  UNL1        0.2494
      9 O         144.3868  140.1139  157.8980 O.2     1  UNL1       -0.2698
     10 H         145.4947  143.3688  157.3254 H       1  UNL1        0.1552
     11 C         146.0036  140.9553  156.0466 C.2     1  UNL1        0.0549
     12 C         146.5737  142.0921  155.2512 C.2     1  UNL1       -0.0041
     13 C         147.4453  141.8131  154.0627 C.3     1  UNL1        0.0991
     14 N         148.8816  142.2456  154.0680 N.3     1  UNL1       -0.2665
     15 C         149.8545  141.6041  155.0125 C.3     1  UNL1        0.0899
     16 C         149.3450  143.3195  153.1289 C.3     1  UNL1        0.0899
     17 C         140.6502  144.9713  162.5371 C.3     1  UNL1        0.2525
     18 O         141.5191  143.7488  162.5146 O.3     1  UNL1       -0.4702
     19 N         144.4104  143.0503  162.9056 N.pl3   1  UNL1       -0.2801
     20 H         144.9028  143.8191  163.2740 H       1  UNL1        0.1552
     21 C         144.2343  141.8085  163.7284 C.ar    1  UNL1        0.2208
     22 N         145.1380  140.6311  163.5121 N.ar    1  UNL1       -0.2111
     23 C         144.9619  139.3893  164.3348 C.ar    1  UNL1        0.1147
     24 C         143.8821  139.3250  165.3739 C.ar    1  UNL1        0.0946
     25 CL        143.7060  138.0832  166.1967 Cl      1  UNL1       -0.0790
     26 C         142.9782  140.5025  165.5903 C.ar    1  UNL1        0.0992
     27 N         143.1544  141.7442  164.7675 N.ar    1  UNL1       -0.2126
     28 C         141.8984  140.4381  166.6294 C.ar    1  UNL1        0.0572
     29 C         141.9574  141.0427  168.0009 C.ar    1  UNL1        0.1235
     30 N         140.6654  140.7361  168.6985 N.ar    1  UNL1       -0.1634
     31 N         139.8078  139.9421  167.7582 N.ar    1  UNL1       -0.2281
     32 C         138.4316  139.3630  167.9012 C.ar    1  UNL1        0.1004
     33 C         137.8173  138.5998  166.7654 C.ar    1  UNL1        0.0207
     34 C         138.5794  138.4157  165.4865 C.ar    1  UNL1        0.0031
     35 C         139.9557  138.9948  165.3435 C.ar    1  UNL1        0.0193
     36 C         140.5699  139.7580  166.4794 C.ar    1  UNL1        0.0858
@<TRIPOS>BOND
     1    17    18    1
     2    18     1    1
     3     1     2   ar
     4     2     3   ar
     5     3     4   ar
     6     4     7    1
     7     7     8   am
     8     8     9    2
     9     8    11    1
    10    11    12    2
    11    12    13    1
    12    13    14    1
    13    14    15    1
    14    14    16    1
    15     4     5   ar
    16     5     6   ar
    17     6    19    1
    18    19    21    1
    19    21    22   ar
    20    22    23   ar
    21    23    24   ar
    22    24    25    1
    23    24    26   ar
    24    26    28    1
    25    28    29   ar
    26    29    30   ar
    27    30    31   ar
    28    31    32   ar
    29    32    33   ar
    30    33    34   ar
    31    34    35   ar
    32    35    36   ar
    33    26    27   ar
    34     6     1   ar
    35    27    21   ar
    36    36    28   ar
    37    36    31   ar
    38     7    10    1
    39    19    20    1
@<TRIPOS>MOLECULE
*****
 36 39 0 0 0
SMALL
GASTEIGER

@<TRIPOS>ATOM
      1 C         142.9249  143.0670  158.4362 C.ar    1  UNL1        0.1521
      2 C         142.2409  142.6533  157.1669 C.ar    1  UNL1        0.0395
      3 C         142.5999  141.3530  156.5109 C.ar    1  UNL1        0.0179
      4 C         143.6429  140.4664  157.1242 C.ar    1  UNL1        0.0520
      5 C         144.3268  140.8801  158.3934 C.ar    1  UNL1        0.0324
      6 C         143.9679  142.1804  159.0495 C.ar    1  UNL1        0.0861
      7 N         144.0019  139.1661  156.4682 N.am    1  UNL1       -0.2804
      8 C         143.1818  137.9391  156.7366 C.2     1  UNL1        0.2494
      9 O         142.0027  138.0125  157.6609 O.2     1  UNL1       -0.2698
     10 H         144.7758  139.1179  155.8616 H       1  UNL1        0.1552
     11 C         143.5408  136.6388  156.0807 C.2     1  UNL1        0.0549
     12 C         143.2466  135.3421  156.7750 C.2     1  UNL1       -0.0041
     13 C         143.6056  134.0418  156.1190 C.3     1  UNL1        0.0991
     14 N         142.6229  132.9085  156.1128 N.3     1  UNL1       -0.2665
     15 C         142.9291  131.6462  156.8631 C.3     1  UNL1        0.0899
     16 C         141.3340  133.0375  155.3565 C.3     1  UNL1        0.0899
     17 C         141.1312  144.6836  159.3951 C.3     1  UNL1        0.2525
     18 O         142.5658  144.3673  159.0922 O.3     1  UNL1       -0.4702
     19 N         144.6519  142.5941  160.3187 N.pl3   1  UNL1       -0.2801
     20 H         145.1719  143.4295  160.3479 H       1  UNL1        0.1552
     21 C         144.5435  141.7349  161.5435 C.ar    1  UNL1        0.2208
     22 N         145.6178  141.7810  162.5893 N.ar    1  UNL1       -0.2111
     23 C         145.5095  140.9219  163.8141 C.ar    1  UNL1        0.1147
     24 C         144.3269  140.0166  163.9931 C.ar    1  UNL1        0.0946
     25 CL        144.2186  139.1575  165.2179 Cl      1  UNL1       -0.0790
     26 C         143.2526  139.9705  162.9471 C.ar    1  UNL1        0.0992
     27 N         143.3610  140.8296  161.7224 N.ar    1  UNL1       -0.2126
     28 C         142.0700  139.0652  163.1261 C.ar    1  UNL1        0.0572
     29 C         141.8222  137.7824  162.3892 C.ar    1  UNL1        0.1235
     30 N         140.5266  137.2083  162.8811 N.ar    1  UNL1       -0.1634
     31 N         139.9738  138.1362  163.9219 N.ar    1  UNL1       -0.2281
     32 C         138.7250  138.0844  164.7513 C.ar    1  UNL1        0.1004
     33 C         138.4302  139.1803  165.7321 C.ar    1  UNL1        0.0207
     34 C         139.3840  140.3280  165.8835 C.ar    1  UNL1        0.0031
     35 C         140.6328  140.3798  165.0541 C.ar    1  UNL1        0.0193
     36 C         140.9276  139.2839  164.0733 C.ar    1  UNL1        0.0858
@<TRIPOS>BOND
     1    17    18    1
     2    18     1    1
     3     1     2   ar
     4     2     3   ar
     5     3     4   ar
     6     4     7    1
     7     7     8   am
     8     8     9    2
     9     8    11    1
    10    11    12    2
    11    12    13    1
    12    13    14    1
    13    14    15    1
    14    14    16    1
    15     4     5   ar
    16     5     6   ar
    17     6    19    1
    18    19    21    1
    19    21    22   ar
    20    22    23   ar
    21    23    24   ar
    22    24    25    1
    23    24    26   ar
    24    26    28    1
    25    28    29   ar
    26    29    30   ar
    27    30    31   ar
    28    31    32   ar
    29    32    33   ar
    30    33    34   ar
    31    34    35   ar
    32    35    36   ar
    33    26    27   ar
    34     6     1   ar
    35    27    21   ar
    36    36    28   ar
    37    36    31   ar
    38     7    10    1
    39    19    20    1
@<TRIPOS>MOLECULE
*****
 36 39 0 0 0
SMALL
GASTEIGER

@<TRIPOS>ATOM
      1 C         143.8158  139.6709  160.3094 C.ar    1  UNL1        0.1521
      2 C         143.8692  140.2760  158.9379 C.ar    1  UNL1        0.0395
      3 C         143.2245  139.5710  157.7814 C.ar    1  UNL1        0.0179
      4 C         142.5263  138.2609  157.9965 C.ar    1  UNL1        0.0520
      5 C         142.4729  137.6559  159.3680 C.ar    1  UNL1        0.0324
      6 C         143.1176  138.3608  160.5245 C.ar    1  UNL1        0.0861
      7 N         141.8816  137.5559  156.8401 N.am    1  UNL1       -0.2804
      8 C         142.7222  136.7708  155.8774 C.2     1  UNL1        0.2494
      9 O         144.2075  136.6906  156.0710 O.2     1  UNL1       -0.2698
     10 H         140.9068  137.6085  156.7130 H       1  UNL1        0.1552
     11 C         142.0776  136.0657  154.7209 C.2     1  UNL1        0.0549
     12 C         142.6340  134.7609  154.2333 C.2     1  UNL1       -0.0041
     13 C         141.9893  134.0559  153.0769 C.3     1  UNL1        0.0991
     14 N         141.6997  132.5866  153.1613 N.3     1  UNL1       -0.2665
     15 C         141.9471  131.7039  151.9740 C.3     1  UNL1        0.0899
     16 C         141.1627  131.9999  154.4331 C.3     1  UNL1        0.0899
     17 C         143.7528  141.5141  162.1393 C.3     1  UNL1        0.2525
     18 O         144.4605  140.3759  161.4658 O.3     1  UNL1       -0.4702
     19 N         143.0642  137.7557  161.8960 N.pl3   1  UNL1       -0.2801
     20 H         143.8082  137.1963  162.2165 H       1  UNL1        0.1552
     21 C         141.8772  138.0029  162.7791 C.ar    1  UNL1        0.2208
     22 N         141.5449  137.0363  163.8769 N.ar    1  UNL1       -0.2111
     23 C         140.3580  137.2834  164.7601 C.ar    1  UNL1        0.1147
     24 C         139.5032  138.4973  164.5454 C.ar    1  UNL1        0.0946
     25 CL        138.3162  138.7445  165.4285 Cl      1  UNL1       -0.0790
     26 C         139.8355  139.4640  163.4475 C.ar    1  UNL1        0.0992
     27 N         141.0225  139.2167  162.5645 N.ar    1  UNL1       -0.2126
     28 C         138.9808  140.6778  163.2329 C.ar    1  UNL1        0.0572
     29 C         137.9047  140.8267  162.1985 C.ar    1  UNL1        0.1235
     30 N         137.3110  142.1968  162.3413 N.ar    1  UNL1       -0.1634
     31 N         138.0201  142.8946  163.4639 N.ar    1  UNL1       -0.2281
     32 C         137.8595  144.2636  164.0555 C.ar    1  UNL1        0.1004
     33 C         138.7308  144.6938  165.1981 C.ar    1  UNL1        0.0207
     34 C         139.7628  143.7550  165.7492 C.ar    1  UNL1        0.0031
     35 C         139.9235  142.3860  165.1575 C.ar    1  UNL1        0.0193
     36 C         139.0521  141.9558  164.0149 C.ar    1  UNL1        0.0858
@<TRIPOS>BOND
     1    17    18    1
     2    18     1    1
     3     1     2   ar
     4     2     3   ar
     5     3     4   ar
     6     4     7    1
     7     7     8   am
     8     8     9    2
     9     8    11    1
    10    11    12    2
    11    12    13    1
    12    13    14    1
    13    14    15    1
    14    14    16    1
    15     4     5   ar
    16     5     6   ar
    17     6    19    1
    18    19    21    1
    19    21    22   ar
    20    22    23   ar
    21    23    24   ar
    22    24    25    1
    23    24    26   ar
    24    26    28    1
    25    28    29   ar
    26    29    30   ar
    27    30    31   ar
    28    31    32   ar
    29    32    33   ar
    30    33    34   ar
    31    34    35   ar
    32    35    36   ar
    33    26    27   ar
    34     6     1   ar
    35    27    21   ar
    36    36    28   ar
    37    36    31   ar
    38     7    10    1
    39    19    20    1
@<TRIPOS>MOLECULE
*****
 36 39 0 0 0
SMALL
GASTEIGER

@<TRIPOS>ATOM
      1 C         141.0586  144.7056  162.9565 C.ar    1  UNL1        0.1521
      2 C         140.0932  145.8121  162.6502 C.ar    1  UNL1        0.0395
      3 C         139.7273  146.1159  161.2275 C.ar    1  UNL1        0.0179
      4 C         140.3269  145.3131  160.1112 C.ar    1  UNL1        0.0520
      5 C         141.2922  144.2067  160.4175 C.ar    1  UNL1        0.0324
      6 C         141.6581  143.9029  161.8402 C.ar    1  UNL1        0.0861
      7 N         139.9610  145.6169  158.6886 N.am    1  UNL1       -0.2804
      8 C         141.0320  145.9584  157.6954 C.2     1  UNL1        0.2494
      9 O         142.4687  145.9962  158.1248 O.2     1  UNL1       -0.2698
     10 H         139.0181  145.5921  158.4067 H       1  UNL1        0.1552
     11 C         140.6662  146.2622  156.2727 C.2     1  UNL1        0.0549
     12 C         139.5828  147.2551  155.9724 C.2     1  UNL1       -0.0041
     13 C         139.2172  147.5588  154.5497 C.3     1  UNL1        0.0991
     14 N         139.7305  148.8061  153.8933 N.3     1  UNL1       -0.2665
     15 C         139.4155  150.1485  154.4839 C.3     1  UNL1        0.0899
     16 C         140.5589  148.7110  152.6464 C.3     1  UNL1        0.0899
     17 C         140.4876  143.6090  165.2416 C.3     1  UNL1        0.2525
     18 O         141.4244  144.4018  164.3792 O.3     1  UNL1       -0.4702
     19 N         142.6234  142.7964  162.1464 N.pl3   1  UNL1       -0.2801
     20 H         143.5865  142.9254  161.9878 H       1  UNL1        0.1552
     21 C         142.1216  141.4934  162.6943 C.ar    1  UNL1        0.2208
     22 N         141.2067  140.6361  161.8708 N.ar    1  UNL1       -0.2111
     23 C         140.7049  139.3331  162.4187 C.ar    1  UNL1        0.1147
     24 C         141.1178  138.8873  163.7901 C.ar    1  UNL1        0.0946
     25 CL        140.6160  137.5843  164.3381 Cl      1  UNL1       -0.0790
     26 C         142.0327  139.7447  164.6137 C.ar    1  UNL1        0.0992
     27 N         142.5345  141.0476  164.0657 N.ar    1  UNL1       -0.2126
     28 C         142.4456  139.2989  165.9851 C.ar    1  UNL1        0.0572
     29 C         143.5437  138.3278  166.3032 C.ar    1  UNL1        0.1235
     30 N         143.6097  138.1748  167.7939 N.ar    1  UNL1       -0.1634
     31 N         142.5523  139.0512  168.3971 N.ar    1  UNL1       -0.2281
     32 C         142.1517  139.3064  169.8199 C.ar    1  UNL1        0.1004
     33 C         141.0317  140.2564  170.1248 C.ar    1  UNL1        0.0207
     34 C         140.3122  140.9511  169.0069 C.ar    1  UNL1        0.0031
     35 C         140.7128  140.6959  167.5841 C.ar    1  UNL1        0.0193
     36 C         141.8329  139.7460  167.2792 C.ar    1  UNL1        0.0858
@<TRIPOS>BOND
     1    17    18    1
     2    18     1    1
     3     1     2   ar
     4     2     3   ar
     5     3     4   ar
     6     4     7    1
     7     7     8   am
     8     8     9    2
     9     8    11    1
    10    11    12    2
    11    12    13    1
    12    13    14    1
    13    14    15    1
    14    14    16    1
    15     4     5   ar
    16     5     6   ar
    17     6    19    1
    18    19    21    1
    19    21    22   ar
    20    22    23   ar
    21    23    24   ar
    22    24    25    1
    23    24    26   ar
    24    26    28    1
    25    28    29   ar
    26    29    30   ar
    27    30    31   ar
    28    31    32   ar
    29    32    33   ar
    30    33    34   ar
    31    34    35   ar
    32    35    36   ar
    33    26    27   ar
    34     6     1   ar
    35    27    21   ar
    36    36    28   ar
    37    36    31   ar
    38     7    10    1
    39    19    20    1
@<TRIPOS>MOLECULE
*****
 36 39 0 0 0
SMALL
GASTEIGER

@<TRIPOS>ATOM
      1 C         140.5256  143.4772  159.0555 C.ar    1  UNL1        0.1521
      2 C         140.4428  142.6058  157.8373 C.ar    1  UNL1        0.0395
      3 C         141.6686  142.3546  157.0100 C.ar    1  UNL1        0.0179
      4 C         142.9772  142.9749  157.4009 C.ar    1  UNL1        0.0520
      5 C         143.0600  143.8462  158.6191 C.ar    1  UNL1        0.0324
      6 C         141.8342  144.0974  159.4464 C.ar    1  UNL1        0.0861
      7 N         144.2030  142.7238  156.5737 N.am    1  UNL1       -0.2804
      8 C         145.0178  141.4845  156.7975 C.2     1  UNL1        0.2494
      9 O         144.6069  140.4962  157.8485 O.2     1  UNL1       -0.2698
     10 H         144.4728  143.3724  155.8839 H       1  UNL1        0.1552
     11 C         146.2437  141.2333  155.9703 C.2     1  UNL1        0.0549
     12 C         147.4312  142.1412  156.0942 C.2     1  UNL1       -0.0041
     13 C         148.6570  141.8899  155.2670 C.3     1  UNL1        0.0991
     14 N         148.7687  142.4814  153.8930 N.3     1  UNL1       -0.2665
     15 C         148.0011  143.7226  153.5461 C.3     1  UNL1        0.0899
     16 C         149.6479  141.8317  152.8660 C.3     1  UNL1        0.0899
     17 C         138.5771  142.5790  160.5207 C.3     1  UNL1        0.2525
     18 O         139.2998  143.7283  159.8828 O.3     1  UNL1       -0.4702
     19 N         141.9171  144.9688  160.6645 N.pl3   1  UNL1       -0.2801
     20 H         141.6979  145.9264  160.6005 H       1  UNL1        0.1552
     21 C         142.3339  144.3811  161.9801 C.ar    1  UNL1        0.2208
     22 N         143.5480  144.9081  162.6860 N.ar    1  UNL1       -0.2111
     23 C         143.9648  144.3204  164.0016 C.ar    1  UNL1        0.1147
     24 C         143.1675  143.2058  164.6114 C.ar    1  UNL1        0.0946
     25 CL        143.5843  142.6181  165.9270 Cl      1  UNL1       -0.0790
     26 C         141.9534  142.6787  163.9055 C.ar    1  UNL1        0.0992
     27 N         141.5366  143.2664  162.5899 N.ar    1  UNL1       -0.2126
     28 C         141.1561  141.5640  164.5153 C.ar    1  UNL1        0.0572
     29 C         140.0931  141.7112  165.5633 C.ar    1  UNL1        0.1235
     30 N         139.5619  140.3446  165.8798 N.ar    1  UNL1       -0.1634
     31 N         140.2966  139.3528  165.0274 N.ar    1  UNL1       -0.2281
     32 C         140.1958  137.8608  164.9103 C.ar    1  UNL1        0.1004
     33 C         141.0802  137.1225  163.9498 C.ar    1  UNL1        0.0207
     34 C         142.0655  137.8762  163.1064 C.ar    1  UNL1        0.0031
     35 C         142.1664  139.3682  163.2236 C.ar    1  UNL1        0.0193
     36 C         141.2819  140.1065  164.1841 C.ar    1  UNL1        0.0858
@<TRIPOS>BOND
     1    17    18    1
     2    18     1    1
     3     1     2   ar
     4     2     3   ar
     5     3     4   ar
     6     4     7    1
     7     7     8   am
     8     8     9    2
     9     8    11    1
    10    11    12    2
    11    12    13    1
    12    13    14    1
    13    14    15    1
    14    14    16    1
    15     4     5   ar
    16     5     6   ar
    17     6    19    1
    18    19    21    1
    19    21    22   ar
    20    22    23   ar
    21    23    24   ar
    22    24    25    1
    23    24    26   ar
    24    26    28    1
    25    28    29   ar
    26    29    30   ar
    27    30    31   ar
    28    31    32   ar
    29    32    33   ar
    30    33    34   ar
    31    34    35   ar
    32    35    36   ar
    33    26    27   ar
    34     6     1   ar
    35    27    21   ar
    36    36    28   ar
    37    36    31   ar
    38     7    10    1
    39    19    20    1
@<TRIPOS>MOLECULE
*****
 36 39 0 0 0
SMALL
GASTEIGER

@<TRIPOS>ATOM
      1 C         142.2223  143.5691  161.5511 C.ar    1  UNL1        0.1521
      2 C         141.5873  143.6847  160.1970 C.ar    1  UNL1        0.0395
      3 C         142.3917  143.3959  158.9643 C.ar    1  UNL1        0.0179
      4 C         143.8310  142.9915  159.0857 C.ar    1  UNL1        0.0520
      5 C         144.4660  142.8759  160.4397 C.ar    1  UNL1        0.0324
      6 C         143.6616  143.1648  161.6725 C.ar    1  UNL1        0.0861
      7 N         144.6354  142.7027  157.8530 N.am    1  UNL1       -0.2804
      8 C         144.8774  141.2838  157.4308 C.2     1  UNL1        0.2494
      9 O         144.3150  140.1538  158.2412 O.2     1  UNL1       -0.2698
     10 H         145.0045  143.4443  157.3211 H       1  UNL1        0.1552
     11 C         145.6818  140.9949  156.1981 C.2     1  UNL1        0.0549
     12 C         146.4117  142.1048  155.5015 C.2     1  UNL1       -0.0041
     13 C         147.2160  141.8158  154.2688 C.3     1  UNL1        0.0991
     14 N         148.6886  142.1004  154.2505 N.3     1  UNL1       -0.2665
     15 C         149.5580  141.6279  155.3779 C.3     1  UNL1        0.0899
     16 C         149.2921  142.8575  153.1048 C.3     1  UNL1        0.0899
     17 C         141.5747  145.1715  163.4910 C.3     1  UNL1        0.2525
     18 O         141.4179  143.8580  162.7838 O.3     1  UNL1       -0.4702
     19 N         144.2966  143.0492  163.0265 N.pl3   1  UNL1       -0.2801
     20 H         144.8200  143.7995  163.3904 H       1  UNL1        0.1552
     21 C         144.1343  141.7905  163.8261 C.ar    1  UNL1        0.2208
     22 N         145.1160  140.6679  163.6651 N.ar    1  UNL1       -0.2111
     23 C         144.9537  139.4092  164.4647 C.ar    1  UNL1        0.1147
     24 C         143.8097  139.2732  165.4253 C.ar    1  UNL1        0.0946
     25 CL        143.6474  138.0145  166.2249 Cl      1  UNL1       -0.0790
     26 C         142.8280  140.3959  165.5863 C.ar    1  UNL1        0.0992
     27 N         142.9903  141.6545  164.7867 N.ar    1  UNL1       -0.2126
     28 C         141.6840  140.2599  166.5470 C.ar    1  UNL1        0.0572
     29 C         140.3168  139.7359  166.2213 C.ar    1  UNL1        0.1235
     30 N         139.4942  139.7762  167.4750 N.ar    1  UNL1       -0.1634
     31 N         140.3531  140.3251  168.5755 N.ar    1  UNL1       -0.2281
     32 C         140.0776  140.5913  170.0257 C.ar    1  UNL1        0.1004
     33 C         141.1555  141.1565  170.9024 C.ar    1  UNL1        0.0207
     34 C         142.5089  141.4555  170.3288 C.ar    1  UNL1        0.0031
     35 C         142.7844  141.1893  168.8786 C.ar    1  UNL1        0.0193
     36 C         141.7064  140.6241  168.0019 C.ar    1  UNL1        0.0858
@<TRIPOS>BOND
     1    17    18    1
     2    18     1    1
     3     1     2   ar
     4     2     3   ar
     5     3     4   ar
     6     4     7    1
     7     7     8   am
     8     8     9    2
     9     8    11    1
    10    11    12    2
    11    12    13    1
    12    13    14    1
    13    14    15    1
    14    14    16    1
    15     4     5   ar
    16     5     6   ar
    17     6    19    1
    18    19    21    1
    19    21    22   ar
    20    22    23   ar
    21    23    24   ar
    22    24    25    1
    23    24    26   ar
    24    26    28    1
    25    28    29   ar
    26    29    30   ar
    27    30    31   ar
    28    31    32   ar
    29    32    33   ar
    30    33    34   ar
    31    34    35   ar
    32    35    36   ar
    33    26    27   ar
    34     6     1   ar
    35    27    21   ar
    36    36    28   ar
    37    36    31   ar
    38     7    10    1
    39    19    20    1
@<TRIPOS>MOLECULE
*****
 36 39 0 0 0
SMALL
GASTEIGER

@<TRIPOS>ATOM
      1 C         139.6088  143.1947  159.6642 C.ar    1  UNL1        0.1521
      2 C         139.2803  143.0206  158.2109 C.ar    1  UNL1        0.0395
      3 C         139.6512  144.0885  157.2250 C.ar    1  UNL1        0.0179
      4 C         140.3506  145.3305  157.6923 C.ar    1  UNL1        0.0520
      5 C         140.6790  145.5045  159.1455 C.ar    1  UNL1        0.0324
      6 C         140.3082  144.4366  160.1315 C.ar    1  UNL1        0.0861
      7 N         140.7214  146.3984  156.7064 N.am    1  UNL1       -0.2804
      8 C         139.7216  146.8578  155.6870 C.2     1  UNL1        0.2494
      9 O         138.3510  146.2494  155.6534 O.2     1  UNL1       -0.2698
     10 H         141.6210  146.7978  156.7285 H       1  UNL1        0.1552
     11 C         140.0924  147.9258  154.7010 C.2     1  UNL1        0.0549
     12 C         139.3439  149.2255  154.6862 C.2     1  UNL1       -0.0041
     13 C         139.7147  150.2934  153.7002 C.3     1  UNL1        0.0991
     14 N         139.6311  151.7386  154.0931 N.3     1  UNL1       -0.2665
     15 C         138.4988  152.2180  154.9522 C.3     1  UNL1        0.0899
     16 C         140.6798  152.7045  153.6270 C.3     1  UNL1        0.0899
     17 C         138.0572  142.3188  161.5551 C.3     1  UNL1        0.2525
     18 O         139.2380  142.1267  160.6501 O.3     1  UNL1       -0.4702
     19 N         140.6367  144.6108  161.5847 N.pl3   1  UNL1       -0.2801
     20 H         140.0582  145.1647  162.1571 H       1  UNL1        0.1552
     21 C         141.8465  143.9409  162.1656 C.ar    1  UNL1        0.2208
     22 N         143.2193  144.3902  161.7613 N.ar    1  UNL1       -0.2111
     23 C         144.4292  143.7204  162.3423 C.ar    1  UNL1        0.1147
     24 C         144.2662  142.6012  163.3276 C.ar    1  UNL1        0.0946
     25 CL        145.4760  141.9313  163.9086 Cl      1  UNL1       -0.0790
     26 C         142.8933  142.1518  163.7320 C.ar    1  UNL1        0.0992
     27 N         141.6836  142.8217  163.1510 N.ar    1  UNL1       -0.2126
     28 C         142.7303  141.0326  164.7173 C.ar    1  UNL1        0.0572
     29 C         142.4539  139.5968  164.3828 C.ar    1  UNL1        0.1235
     30 N         142.3679  138.8296  165.6689 N.ar    1  UNL1       -0.1634
     31 N         142.5913  139.7913  166.7982 N.ar    1  UNL1       -0.2281
     32 C         142.6196  139.6031  168.2861 C.ar    1  UNL1        0.1004
     33 C         142.8720  140.7764  169.1857 C.ar    1  UNL1        0.0207
     34 C         143.0960  142.1380  168.5976 C.ar    1  UNL1        0.0031
     35 C         143.0676  142.3262  167.1098 C.ar    1  UNL1        0.0193
     36 C         142.8153  141.1529  166.2101 C.ar    1  UNL1        0.0858
@<TRIPOS>BOND
     1    17    18    1
     2    18     1    1
     3     1     2   ar
     4     2     3   ar
     5     3     4   ar
     6     4     7    1
     7     7     8   am
     8     8     9    2
     9     8    11    1
    10    11    12    2
    11    12    13    1
    12    13    14    1
    13    14    15    1
    14    14    16    1
    15     4     5   ar
    16     5     6   ar
    17     6    19    1
    18    19    21    1
    19    21    22   ar
    20    22    23   ar
    21    23    24   ar
    22    24    25    1
    23    24    26   ar
    24    26    28    1
    25    28    29   ar
    26    29    30   ar
    27    30    31   ar
    28    31    32   ar
    29    32    33   ar
    30    33    34   ar
    31    34    35   ar
    32    35    36   ar
    33    26    27   ar
    34     6     1   ar
    35    27    21   ar
    36    36    28   ar
    37    36    31   ar
    38     7    10    1
    39    19    20    1
@<TRIPOS>MOLECULE
*****
 36 39 0 0 0
SMALL
GASTEIGER

@<TRIPOS>ATOM
      1 C         137.9258  140.5198  161.1346 C.ar    1  UNL1        0.1521
      2 C         138.2297  141.0874  159.7797 C.ar    1  UNL1        0.0395
      3 C         138.9941  140.2720  158.7793 C.ar    1  UNL1        0.0179
      4 C         139.4546  138.8891  159.1336 C.ar    1  UNL1        0.0520
      5 C         139.1507  138.3216  160.4884 C.ar    1  UNL1        0.0324
      6 C         138.3863  139.1369  161.4890 C.ar    1  UNL1        0.0861
      7 N         140.2190  138.0738  158.1332 N.am    1  UNL1       -0.2804
      8 C         141.7188  138.0716  158.1565 C.2     1  UNL1        0.2494
      9 O         142.4542  138.8848  159.1803 O.2     1  UNL1       -0.2698
     10 H         139.7364  137.5401  157.4613 H       1  UNL1        0.1552
     11 C         142.4833  137.2563  157.1561 C.2     1  UNL1        0.0549
     12 C         141.7664  136.2556  156.2991 C.2     1  UNL1       -0.0041
     13 C         142.5309  135.4403  155.2987 C.3     1  UNL1        0.0991
     14 N         142.8250  133.9959  155.5762 N.3     1  UNL1       -0.2665
     15 C         143.1323  133.5482  156.9745 C.3     1  UNL1        0.0899
     16 C         142.8118  132.9990  154.4555 C.3     1  UNL1        0.0899
     17 C         137.7481  142.6072  162.6712 C.3     1  UNL1        0.2525
     18 O         137.1613  141.3351  162.1351 O.3     1  UNL1       -0.4702
     19 N         138.0824  138.5693  162.8437 N.pl3   1  UNL1       -0.2801
     20 H         137.3905  137.8760  162.9431 H       1  UNL1        0.1552
     21 C         138.8326  139.0580  164.0472 C.ar    1  UNL1        0.2208
     22 N         138.3199  138.7560  165.4241 N.ar    1  UNL1       -0.2111
     23 C         139.0701  139.2447  166.6276 C.ar    1  UNL1        0.1147
     24 C         140.3330  140.0354  166.4541 C.ar    1  UNL1        0.0946
     25 CL        141.0832  140.5241  167.6576 Cl      1  UNL1       -0.0790
     26 C         140.8457  140.3373  165.0771 C.ar    1  UNL1        0.0992
     27 N         140.0954  139.8486  163.8737 N.ar    1  UNL1       -0.2126
     28 C         142.1085  141.1280  164.9036 C.ar    1  UNL1        0.0572
     29 C         143.5052  140.6048  165.0631 C.ar    1  UNL1        0.1235
     30 N         144.4562  141.7341  164.7983 N.ar    1  UNL1       -0.1634
     31 N         143.6473  142.9553  164.4751 N.ar    1  UNL1       -0.2281
     32 C         144.0445  144.3599  164.1300 C.ar    1  UNL1        0.1004
     33 C         142.9906  145.3900  163.8500 C.ar    1  UNL1        0.0207
     34 C         141.5396  145.0153  163.9151 C.ar    1  UNL1        0.0031
     35 C         141.1425  143.6107  164.2602 C.ar    1  UNL1        0.0193
     36 C         142.1963  142.5807  164.5402 C.ar    1  UNL1        0.0858
@<TRIPOS>BOND
     1    17    18    1
     2    18     1    1
     3     1     2   ar
     4     2     3   ar
     5     3     4   ar
     6     4     7    1
     7     7     8   am
     8     8     9    2
     9     8    11    1
    10    11    12    2
    11    12    13    1
    12    13    14    1
    13    14    15    1
    14    14    16    1
    15     4     5   ar
    16     5     6   ar
    17     6    19    1
    18    19    21    1
    19    21    22   ar
    20    22    23   ar
    21    23    24   ar
    22    24    25    1
    23    24    26   ar
    24    26    28    1
    25    28    29   ar
    26    29    30   ar
    27    30    31   ar
    28    31    32   ar
    29    32    33   ar
    30    33    34   ar
    31    34    35   ar
    32    35    36   ar
    33    26    27   ar
    34     6     1   ar
    35    27    21   ar
    36    36    28   ar
    37    36    31   ar
    38     7    10    1
    39    19    20    1
