@<TRIPOS>MOLECULE
*****
 38 41 0 0 0
SMALL
GASTEIGER

@<TRIPOS>ATOM
      1 C         141.7049  139.0988  161.5153 C.ar    1  UNL1        0.0674
      2 C         141.5961  137.6248  161.7712 C.ar    1  UNL1        0.1133
      3 N         140.7488  137.1204  162.9015 N.ar    1  UNL1       -0.2425
      4 C         140.0103  138.0900  163.7759 C.ar    1  UNL1        0.0825
      5 C         139.1629  137.5855  164.9062 C.ar    1  UNL1        0.0230
      6 C         138.4244  138.5550  165.7806 C.ar    1  UNL1        0.0741
      7 C         138.5332  140.0291  165.5247 C.ar    1  UNL1        0.0183
      8 C         139.3805  140.5335  164.3944 C.ar    1  UNL1        0.0463
      9 C         140.1191  139.5639  163.5200 C.ar    1  UNL1        0.0320
     10 C         140.9663  140.0684  162.3897 C.ar    1  UNL1        0.0188
     11 N         146.0203  142.2764  157.2107 N.am    1  UNL1       -0.2888
     12 C         145.0940  141.1167  156.9940 C.2     1  UNL1        0.3041
     13 O         145.0151  140.4613  155.6471 O.2     1  UNL1       -0.2526
     14 N         144.2468  140.6122  158.1243 N.am    1  UNL1       -0.2607
     15 C         144.3257  141.2676  159.4713 C.3     1  UNL1        0.1164
     16 C         143.4784  140.7631  160.6016 C.3     1  UNL1        0.1124
     17 N         142.5522  139.6033  160.3850 N.pl3   1  UNL1       -0.3028
     18 C         142.4732  138.9480  159.0380 C.3     1  UNL1        0.1124
     19 C         143.3205  139.4524  157.9077 C.3     1  UNL1        0.1164
     20 H         146.0721  142.7065  158.0947 H       1  UNL1        0.1510
     21 C         148.1804  142.1225  155.7753 C.3     1  UNL1        0.0230
     22 C         146.8676  142.7809  156.0803 C.3     1  UNL1        0.0910
     23 C         137.5771  138.0506  166.9109 C.3     1  UNL1        0.4187
     24 F         136.7298  137.5462  168.0413 F       1  UNL1       -0.1659
     25 F         137.5388  139.4304  167.4980 F       1  UNL1       -0.1659
     26 F         137.6154  136.6708  166.3239 F       1  UNL1       -0.1659
     27 N         139.4893  142.0074  164.1385 N.pl3   1  UNL1       -0.3290
     28 H         138.8004  142.4668  163.6059 H       1  UNL1        0.1471
     29 C         140.6478  142.7816  164.6941 C.3     1  UNL1        0.1145
     30 C         141.1378  142.5038  166.0844 C.ar    1  UNL1        0.0035
     31 C         142.4064  141.7308  166.2920 C.ar    1  UNL1       -0.0022
     32 C         142.8964  141.4530  167.6821 C.ar    1  UNL1        0.0060
     33 C         142.1179  141.9482  168.8648 C.ar    1  UNL1        0.0752
     34 C         140.8493  142.7213  168.6572 C.ar    1  UNL1        0.2898
     35 C         140.3593  142.9991  167.2670 C.ar    1  UNL1        0.0727
     36 N         140.0708  143.2165  169.8398 N.pl3   1  UNL1        0.0809
     37 O         139.2504  142.2588  170.6521 O.2     1  UNL1        0.0415
     38 O         140.1126  144.6694  170.2101 O.co2   1  UNL1       -0.5760
@<TRIPOS>UNITY_ATOM_ATTR
36 1
charge 1
38 1
charge -1
@<TRIPOS>BOND
     1    21    22    1
     2    22    11    1
     3    11    12   am
     4    12    13    2
     5    12    14   am
     6    14    15    1
     7    15    16    1
     8    16    17    1
     9    17     1    1
    10     1     2   ar
    11     2     3   ar
    12     3     4   ar
    13     4     5   ar
    14     5     6   ar
    15     6    23    1
    16    23    24    1
    17    23    25    1
    18    23    26    1
    19     6     7   ar
    20     7     8   ar
    21     8    27    1
    22    27    29    1
    23    29    30    1
    24    30    31   ar
    25    31    32   ar
    26    32    33   ar
    27    33    34   ar
    28    34    36    1
    29    36    37    2
    30    36    38    1
    31    34    35   ar
    32     8     9   ar
    33     9    10   ar
    34    17    18    1
    35    18    19    1
    36    19    14    1
    37    10     1   ar
    38     9     4   ar
    39    35    30   ar
    40    11    20    1
    41    27    28    1
@<TRIPOS>MOLECULE
*****
 38 41 0 0 0
SMALL
GASTEIGER

@<TRIPOS>ATOM
      1 C         142.1607  143.7758  162.1801 C.ar    1  UNL1        0.0674
      2 C         143.5932  143.4166  162.4423 C.ar    1  UNL1        0.1133
      3 N         143.9902  142.8347  163.7665 N.ar    1  UNL1       -0.2425
      4 C         142.9547  142.6121  164.8287 C.ar    1  UNL1        0.0825
      5 C         143.3518  142.0302  166.1530 C.ar    1  UNL1        0.0230
      6 C         142.3163  141.8076  167.2152 C.ar    1  UNL1        0.0741
      7 C         140.8837  142.1668  166.9530 C.ar    1  UNL1        0.0183
      8 C         140.4867  142.7487  165.6287 C.ar    1  UNL1        0.0463
      9 C         141.5222  142.9713  164.5665 C.ar    1  UNL1        0.0320
     10 C         141.1252  143.5532  163.2423 C.ar    1  UNL1        0.0188
     11 N         139.5056  147.1555  156.8156 N.am    1  UNL1       -0.2888
     12 C         140.5725  146.1032  156.8828 C.2     1  UNL1        0.3041
     13 O         141.2422  145.6327  155.6258 O.2     1  UNL1       -0.2526
     14 N         140.9695  145.5214  158.2071 N.am    1  UNL1       -0.2607
     15 C         140.2997  145.9918  159.4641 C.3     1  UNL1        0.1164
     16 C         140.6968  145.4100  160.7885 C.3     1  UNL1        0.1124
     17 N         141.7636  144.3577  160.8558 N.pl3   1  UNL1       -0.3028
     18 C         142.4334  143.8872  159.5988 C.3     1  UNL1        0.1124
     19 C         142.0363  144.4690  158.2745 C.3     1  UNL1        0.1164
     20 H         139.0661  147.4643  157.6406 H       1  UNL1        0.1510
     21 C         138.7943  149.1997  155.3785 C.3     1  UNL1        0.0230
     22 C         139.1086  147.7374  155.4912 C.3     1  UNL1        0.0910
     23 C         142.7133  141.2257  168.5395 C.3     1  UNL1        0.4187
     24 F         143.1104  140.6439  169.8638 F       1  UNL1       -0.1659
     25 F         143.7108  142.3303  168.7257 F       1  UNL1       -0.1659
     26 F         141.7157  140.1211  168.3532 F       1  UNL1       -0.1659
     27 N         139.0541  143.1079  165.3665 N.pl3   1  UNL1       -0.3290
     28 H         138.6930  143.9629  165.6950 H       1  UNL1        0.1471
     29 C         138.1718  142.1645  164.6040 C.3     1  UNL1        0.1145
     30 C         138.4424  140.6895  164.6404 C.ar    1  UNL1        0.0035
     31 C         138.1397  139.9018  165.8805 C.ar    1  UNL1       -0.0022
     32 C         138.4103  138.4269  165.9169 C.ar    1  UNL1        0.0060
     33 C         138.9836  137.7396  164.7131 C.ar    1  UNL1        0.0752
     34 C         139.2863  138.5273  163.4730 C.ar    1  UNL1        0.2898
     35 C         139.0157  140.0023  163.4366 C.ar    1  UNL1        0.0727
     36 N         139.8596  137.8401  162.2692 N.pl3   1  UNL1        0.0809
     37 O         139.1301  137.8888  160.9594 O.2     1  UNL1        0.0415
     38 O         141.1623  137.1041  162.3753 O.co2   1  UNL1       -0.5760
@<TRIPOS>UNITY_ATOM_ATTR
36 1
charge 1
38 1
charge -1
@<TRIPOS>BOND
     1    21    22    1
     2    22    11    1
     3    11    12   am
     4    12    13    2
     5    12    14   am
     6    14    15    1
     7    15    16    1
     8    16    17    1
     9    17     1    1
    10     1     2   ar
    11     2     3   ar
    12     3     4   ar
    13     4     5   ar
    14     5     6   ar
    15     6    23    1
    16    23    24    1
    17    23    25    1
    18    23    26    1
    19     6     7   ar
    20     7     8   ar
    21     8    27    1
    22    27    29    1
    23    29    30    1
    24    30    31   ar
    25    31    32   ar
    26    32    33   ar
    27    33    34   ar
    28    34    36    1
    29    36    37    2
    30    36    38    1
    31    34    35   ar
    32     8     9   ar
    33     9    10   ar
    34    17    18    1
    35    18    19    1
    36    19    14    1
    37    10     1   ar
    38     9     4   ar
    39    35    30   ar
    40    11    20    1
    41    27    28    1
@<TRIPOS>MOLECULE
*****
 38 41 0 0 0
SMALL
GASTEIGER

@<TRIPOS>ATOM
      1 C         141.6758  138.9872  161.5682 C.ar    1  UNL1        0.0674
      2 C         141.7935  137.5604  162.0158 C.ar    1  UNL1        0.1133
      3 N         140.9838  137.0702  163.1795 N.ar    1  UNL1       -0.2425
      4 C         140.0565  138.0068  163.8956 C.ar    1  UNL1        0.0825
      5 C         139.2468  137.5165  165.0593 C.ar    1  UNL1        0.0230
      6 C         138.3195  138.4532  165.7754 C.ar    1  UNL1        0.0741
      7 C         138.2018  139.8800  165.3278 C.ar    1  UNL1        0.0183
      8 C         139.0115  140.3702  164.1641 C.ar    1  UNL1        0.0463
      9 C         139.9388  139.4336  163.4480 C.ar    1  UNL1        0.0320
     10 C         140.7485  139.9238  162.2843 C.ar    1  UNL1        0.0188
     11 N         145.8375  142.1182  157.0820 N.am    1  UNL1       -0.2888
     12 C         144.9143  140.9480  156.9134 C.2     1  UNL1        0.3041
     13 O         144.8008  140.2681  155.5813 O.2     1  UNL1       -0.2526
     14 N         144.1047  140.4579  158.0771 N.am    1  UNL1       -0.2607
     15 C         144.2183  141.1378  159.4093 C.3     1  UNL1        0.1164
     16 C         143.4086  140.6476  160.5730 C.3     1  UNL1        0.1124
     17 N         142.4855  139.4774  160.4045 N.pl3   1  UNL1       -0.3028
     18 C         142.3719  138.7974  159.0723 C.3     1  UNL1        0.1124
     19 C         143.1815  139.2876  157.9087 C.3     1  UNL1        0.1164
     20 H         145.9120  142.5645  157.9563 H       1  UNL1        0.1510
     21 C         147.9961  142.0145  155.6398 C.3     1  UNL1        0.0230
     22 C         146.6472  142.6085  155.9182 C.3     1  UNL1        0.0910
     23 C         137.5098  137.9630  166.9390 C.3     1  UNL1        0.4187
     24 F         136.7002  137.4728  168.1028 F       1  UNL1       -0.1659
     25 F         137.4975  139.3483  167.5140 F       1  UNL1       -0.1659
     26 F         137.5222  136.5776  166.3640 F       1  UNL1       -0.1659
     27 N         138.8938  141.7970  163.7166 N.pl3   1  UNL1       -0.3290
     28 H         138.3667  142.0197  162.9154 H       1  UNL1        0.1471
     29 C         139.5792  142.8845  164.4896 C.3     1  UNL1        0.1145
     30 C         141.0294  142.7498  164.8486 C.ar    1  UNL1        0.0035
     31 C         141.4253  142.4054  166.2538 C.ar    1  UNL1       -0.0022
     32 C         142.8754  142.2706  166.6129 C.ar    1  UNL1        0.0060
     33 C         143.9297  142.4803  165.5667 C.ar    1  UNL1        0.0752
     34 C         143.5339  142.8248  164.1615 C.ar    1  UNL1        0.2898
     35 C         142.0836  142.9595  163.8024 C.ar    1  UNL1        0.0727
     36 N         144.5881  143.0345  163.1153 N.pl3   1  UNL1        0.0809
     37 O         144.5276  144.2363  162.2198 O.2     1  UNL1        0.0415
     38 O         145.7029  142.0423  162.9646 O.co2   1  UNL1       -0.5760
@<TRIPOS>UNITY_ATOM_ATTR
36 1
charge 1
38 1
charge -1
@<TRIPOS>BOND
     1    21    22    1
     2    22    11    1
     3    11    12   am
     4    12    13    2
     5    12    14   am
     6    14    15    1
     7    15    16    1
     8    16    17    1
     9    17     1    1
    10     1     2   ar
    11     2     3   ar
    12     3     4   ar
    13     4     5   ar
    14     5     6   ar
    15     6    23    1
    16    23    24    1
    17    23    25    1
    18    23    26    1
    19     6     7   ar
    20     7     8   ar
    21     8    27    1
    22    27    29    1
    23    29    30    1
    24    30    31   ar
    25    31    32   ar
    26    32    33   ar
    27    33    34   ar
    28    34    36    1
    29    36    37    2
    30    36    38    1
    31    34    35   ar
    32     8     9   ar
    33     9    10   ar
    34    17    18    1
    35    18    19    1
    36    19    14    1
    37    10     1   ar
    38     9     4   ar
    39    35    30   ar
    40    11    20    1
    41    27    28    1
@<TRIPOS>MOLECULE
*****
 38 41 0 0 0
SMALL
GASTEIGER

@<TRIPOS>ATOM
      1 C         141.6872  139.4939  161.1661 C.ar    1  UNL1        0.0674
      2 C         140.8365  138.3037  160.8349 C.ar    1  UNL1        0.1133
      3 N         139.8855  137.7541  161.8563 N.ar    1  UNL1       -0.2425
      4 C         139.7852  138.3945  163.2090 C.ar    1  UNL1        0.0825
      5 C         138.8341  137.8448  164.2305 C.ar    1  UNL1        0.0230
      6 C         138.7339  138.4853  165.5831 C.ar    1  UNL1        0.0741
      7 C         139.5847  139.6755  165.9143 C.ar    1  UNL1        0.0183
      8 C         140.5357  140.2252  164.8929 C.ar    1  UNL1        0.0463
      9 C         140.6360  139.5847  163.5402 C.ar    1  UNL1        0.0320
     10 C         141.5870  140.1344  162.5188 C.ar    1  UNL1        0.0188
     11 N         145.6472  141.0076  155.7552 N.am    1  UNL1       -0.2888
     12 C         145.4915  141.6928  157.0804 C.2     1  UNL1        0.3041
     13 O         146.2868  142.9278  157.3842 O.2     1  UNL1       -0.2526
     14 N         144.5404  141.1431  158.1017 N.am    1  UNL1       -0.2607
     15 C         143.7451  139.9081  157.7979 C.3     1  UNL1        0.1164
     16 C         142.7940  139.3584  158.8194 C.3     1  UNL1        0.1124
     17 N         142.6383  140.0436  160.1446 N.pl3   1  UNL1       -0.3028
     18 C         143.4336  141.2786  160.4484 C.3     1  UNL1        0.1124
     19 C         144.3847  141.8283  159.4270 C.3     1  UNL1        0.1164
     20 H         145.1252  140.1970  155.5558 H       1  UNL1        0.1510
     21 C         148.0578  141.6797  155.0572 C.3     1  UNL1        0.0230
     22 C         146.5982  141.5573  154.7337 C.3     1  UNL1        0.0910
     23 C         137.7829  137.9356  166.6046 C.3     1  UNL1        0.4187
     24 F         136.8318  137.3859  167.6261 F       1  UNL1       -0.1659
     25 F         138.0229  136.5501  166.0825 F       1  UNL1       -0.1659
     26 F         137.5429  139.3212  167.1267 F       1  UNL1       -0.1659
     27 N         141.3864  141.4153  165.2241 N.pl3   1  UNL1       -0.3290
     28 H         141.1240  142.3107  164.9101 H       1  UNL1        0.1471
     29 C         142.6370  141.2413  166.0338 C.3     1  UNL1        0.1145
     30 C         142.5487  140.8006  167.4650 C.ar    1  UNL1        0.0035
     31 C         142.7291  139.3536  167.8166 C.ar    1  UNL1       -0.0022
     32 C         142.6408  138.9129  169.2477 C.ar    1  UNL1        0.0060
     33 C         142.3719  139.9192  170.3271 C.ar    1  UNL1        0.0752
     34 C         142.1914  141.3662  169.9755 C.ar    1  UNL1        0.2898
     35 C         142.2798  141.8068  168.5443 C.ar    1  UNL1        0.0727
     36 N         141.9226  142.3724  171.0548 N.pl3   1  UNL1        0.0809
     37 O         142.7822  143.5962  171.1703 O.2     1  UNL1        0.0415
     38 O         140.7941  142.1549  172.0187 O.co2   1  UNL1       -0.5760
@<TRIPOS>UNITY_ATOM_ATTR
36 1
charge 1
38 1
charge -1
@<TRIPOS>BOND
     1    21    22    1
     2    22    11    1
     3    11    12   am
     4    12    13    2
     5    12    14   am
     6    14    15    1
     7    15    16    1
     8    16    17    1
     9    17     1    1
    10     1     2   ar
    11     2     3   ar
    12     3     4   ar
    13     4     5   ar
    14     5     6   ar
    15     6    23    1
    16    23    24    1
    17    23    25    1
    18    23    26    1
    19     6     7   ar
    20     7     8   ar
    21     8    27    1
    22    27    29    1
    23    29    30    1
    24    30    31   ar
    25    31    32   ar
    26    32    33   ar
    27    33    34   ar
    28    34    36    1
    29    36    37    2
    30    36    38    1
    31    34    35   ar
    32     8     9   ar
    33     9    10   ar
    34    17    18    1
    35    18    19    1
    36    19    14    1
    37    10     1   ar
    38     9     4   ar
    39    35    30   ar
    40    11    20    1
    41    27    28    1
@<TRIPOS>MOLECULE
*****
 38 41 0 0 0
SMALL
GASTEIGER

@<TRIPOS>ATOM
      1 C         141.6056  139.3850  160.6247 C.ar    1  UNL1        0.0674
      2 C         140.3167  138.7101  160.2599 C.ar    1  UNL1        0.1133
      3 N         139.3476  138.3136  161.3339 N.ar    1  UNL1       -0.2425
      4 C         139.6674  138.5921  162.7727 C.ar    1  UNL1        0.0825
      5 C         138.6981  138.1956  163.8467 C.ar    1  UNL1        0.0230
      6 C         139.0180  138.4740  165.2856 C.ar    1  UNL1        0.0741
      7 C         140.3070  139.1489  165.6503 C.ar    1  UNL1        0.0183
      8 C         141.2761  139.5453  164.5763 C.ar    1  UNL1        0.0463
      9 C         140.9563  139.2669  163.1375 C.ar    1  UNL1        0.0320
     10 C         141.9254  139.6634  162.0635 C.ar    1  UNL1        0.0188
     11 N         146.4351  142.1060  156.5599 N.am    1  UNL1       -0.2888
     12 C         145.4824  140.9708  156.3285 C.2     1  UNL1        0.3041
     13 O         145.4988  140.2320  155.0232 O.2     1  UNL1       -0.2526
     14 N         144.5132  140.5744  157.4026 N.am    1  UNL1       -0.2607
     15 C         144.4968  141.3131  158.7079 C.3     1  UNL1        0.1164
     16 C         143.5276  140.9166  159.7820 C.3     1  UNL1        0.1124
     17 N         142.5748  139.7814  159.5506 N.pl3   1  UNL1       -0.3028
     18 C         142.5913  139.0427  158.2453 C.3     1  UNL1        0.1124
     19 C         143.5604  139.4391  157.1713 C.3     1  UNL1        0.1164
     20 H         146.4243  142.5909  157.4166 H       1  UNL1        0.1510
     21 C         148.7581  141.8596  155.4227 C.3     1  UNL1        0.0230
     22 C         147.4043  142.5025  155.4858 C.3     1  UNL1        0.0910
     23 C         138.0488  138.0776  166.3596 C.3     1  UNL1        0.4187
     24 F         137.0796  137.6811  167.4337 F       1  UNL1       -0.1659
     25 F         137.9634  139.5058  166.8097 F       1  UNL1       -0.1659
     26 F         138.1343  136.6493  165.9095 F       1  UNL1       -0.1659
     27 N         142.5651  140.2202  164.9411 N.pl3   1  UNL1       -0.3290
     28 H         143.4239  139.8103  164.6889 H       1  UNL1        0.1471
     29 C         142.5455  141.5196  165.6903 C.3     1  UNL1        0.1145
     30 C         142.2572  142.7999  164.9638 C.ar    1  UNL1        0.0035
     31 C         143.3850  143.6997  164.5534 C.ar    1  UNL1       -0.0022
     32 C         143.0967  144.9800  163.8269 C.ar    1  UNL1        0.0060
     33 C         141.6806  145.3605  163.5108 C.ar    1  UNL1        0.0752
     34 C         140.5528  144.4607  163.9211 C.ar    1  UNL1        0.2898
     35 C         140.8411  143.1803  164.6476 C.ar    1  UNL1        0.0727
     36 N         139.1367  144.8411  163.6050 N.pl3   1  UNL1        0.0809
     37 O         138.0609  144.6471  164.6321 O.2     1  UNL1        0.0415
     38 O         138.7966  145.4156  162.2618 O.co2   1  UNL1       -0.5760
@<TRIPOS>UNITY_ATOM_ATTR
36 1
charge 1
38 1
charge -1
@<TRIPOS>BOND
     1    21    22    1
     2    22    11    1
     3    11    12   am
     4    12    13    2
     5    12    14   am
     6    14    15    1
     7    15    16    1
     8    16    17    1
     9    17     1    1
    10     1     2   ar
    11     2     3   ar
    12     3     4   ar
    13     4     5   ar
    14     5     6   ar
    15     6    23    1
    16    23    24    1
    17    23    25    1
    18    23    26    1
    19     6     7   ar
    20     7     8   ar
    21     8    27    1
    22    27    29    1
    23    29    30    1
    24    30    31   ar
    25    31    32   ar
    26    32    33   ar
    27    33    34   ar
    28    34    36    1
    29    36    37    2
    30    36    38    1
    31    34    35   ar
    32     8     9   ar
    33     9    10   ar
    34    17    18    1
    35    18    19    1
    36    19    14    1
    37    10     1   ar
    38     9     4   ar
    39    35    30   ar
    40    11    20    1
    41    27    28    1
@<TRIPOS>MOLECULE
*****
 38 41 0 0 0
SMALL
GASTEIGER

@<TRIPOS>ATOM
      1 C         140.0189  143.2008  163.4594 C.ar    1  UNL1        0.0674
      2 C         140.2561  144.2201  164.5340 C.ar    1  UNL1        0.1133
      3 N         140.2781  143.8005  165.9739 N.ar    1  UNL1       -0.2425
      4 C         140.0628  142.3617  166.3392 C.ar    1  UNL1        0.0825
      5 C         140.0848  141.9422  167.7792 C.ar    1  UNL1        0.0230
      6 C         139.8695  140.5033  168.1446 C.ar    1  UNL1        0.0741
      7 C         139.6323  139.4841  167.0699 C.ar    1  UNL1        0.0183
      8 C         139.6104  139.9036  165.6300 C.ar    1  UNL1        0.0463
      9 C         139.8256  141.3424  165.2646 C.ar    1  UNL1        0.0320
     10 C         139.8037  141.7620  163.8247 C.ar    1  UNL1        0.0188
     11 N         140.3643  146.2623  157.3146 N.am    1  UNL1       -0.2888
     12 C         139.9310  144.8788  157.6994 C.2     1  UNL1        0.3041
     13 O         139.4757  143.9148  156.6443 O.2     1  UNL1       -0.2526
     14 N         139.9530  144.4594  159.1394 N.am    1  UNL1       -0.2607
     15 C         140.4083  145.4234  160.1945 C.3     1  UNL1        0.1164
     16 C         140.4302  145.0039  161.6346 C.3     1  UNL1        0.1124
     17 N         139.9969  143.6204  162.0193 N.pl3   1  UNL1       -0.3028
     18 C         139.5417  142.6563  160.9642 C.3     1  UNL1        0.1124
     19 C         139.5197  143.0758  159.5242 C.3     1  UNL1        0.1164
     20 H         140.6631  146.8951  158.0072 H       1  UNL1        0.1510
     21 C         139.1635  147.4326  155.3300 C.3     1  UNL1        0.0230
     22 C         140.3423  146.6819  155.8746 C.3     1  UNL1        0.0910
     23 C         139.8915  140.0838  169.5845 C.3     1  UNL1        0.4187
     24 F         139.9134  139.6642  171.0245 F       1  UNL1       -0.1659
     25 F         138.5479  140.7181  169.7898 F       1  UNL1       -0.1659
     26 F         141.2351  139.4494  169.3792 F       1  UNL1       -0.1659
     27 N         139.3731  138.8844  164.5554 N.pl3   1  UNL1       -0.3290
     28 H         138.4741  138.7768  164.1688 H       1  UNL1        0.1471
     29 C         140.5056  138.0290  164.0698 C.3     1  UNL1        0.1145
     30 C         141.9217  138.4964  164.2323 C.ar    1  UNL1        0.0035
     31 C         142.6915  138.1411  165.4697 C.ar    1  UNL1       -0.0022
     32 C         144.1075  138.6085  165.6322 C.ar    1  UNL1        0.0060
     33 C         144.7538  139.4312  164.5573 C.ar    1  UNL1        0.0752
     34 C         143.9841  139.7865  163.3198 C.ar    1  UNL1        0.2898
     35 C         142.5680  139.3191  163.1574 C.ar    1  UNL1        0.0727
     36 N         144.6303  140.6092  162.2449 N.pl3   1  UNL1        0.0809
     37 O         144.2046  140.4442  160.8161 O.2     1  UNL1        0.0415
     38 O         145.7024  141.5968  162.5988 O.co2   1  UNL1       -0.5760
@<TRIPOS>UNITY_ATOM_ATTR
36 1
charge 1
38 1
charge -1
@<TRIPOS>BOND
     1    21    22    1
     2    22    11    1
     3    11    12   am
     4    12    13    2
     5    12    14   am
     6    14    15    1
     7    15    16    1
     8    16    17    1
     9    17     1    1
    10     1     2   ar
    11     2     3   ar
    12     3     4   ar
    13     4     5   ar
    14     5     6   ar
    15     6    23    1
    16    23    24    1
    17    23    25    1
    18    23    26    1
    19     6     7   ar
    20     7     8   ar
    21     8    27    1
    22    27    29    1
    23    29    30    1
    24    30    31   ar
    25    31    32   ar
    26    32    33   ar
    27    33    34   ar
    28    34    36    1
    29    36    37    2
    30    36    38    1
    31    34    35   ar
    32     8     9   ar
    33     9    10   ar
    34    17    18    1
    35    18    19    1
    36    19    14    1
    37    10     1   ar
    38     9     4   ar
    39    35    30   ar
    40    11    20    1
    41    27    28    1
@<TRIPOS>MOLECULE
*****
 38 41 0 0 0
SMALL
GASTEIGER

@<TRIPOS>ATOM
      1 C         140.3479  138.5854  162.2164 C.ar    1  UNL1        0.0674
      2 C         138.9450  138.1777  162.5563 C.ar    1  UNL1        0.1133
      3 N         138.4193  138.3860  163.9456 N.ar    1  UNL1       -0.2425
      4 C         139.2965  139.0020  164.9950 C.ar    1  UNL1        0.0825
      5 C         138.7707  139.2102  166.3844 C.ar    1  UNL1        0.0230
      6 C         139.6478  139.8262  167.4337 C.ar    1  UNL1        0.0741
      7 C         141.0508  140.2339  167.0937 C.ar    1  UNL1        0.0183
      8 C         141.5765  140.0256  165.7044 C.ar    1  UNL1        0.0463
      9 C         140.6994  139.4097  164.6551 C.ar    1  UNL1        0.0320
     10 C         141.2251  139.2014  163.2658 C.ar    1  UNL1        0.0188
     11 N         141.5422  137.9286  155.4790 N.am    1  UNL1       -0.2888
     12 C         142.4511  137.7524  156.6592 C.2     1  UNL1        0.3041
     13 O         143.8858  137.3680  156.4500 O.2     1  UNL1       -0.2526
     14 N         141.9253  137.9607  158.0484 N.am    1  UNL1       -0.2607
     15 C         140.4906  138.3451  158.2575 C.3     1  UNL1        0.1164
     16 C         139.9648  138.5534  159.6469 C.3     1  UNL1        0.1124
     17 N         140.8737  138.3772  160.8270 N.pl3   1  UNL1       -0.3028
     18 C         142.3084  137.9927  160.6179 C.3     1  UNL1        0.1124
     19 C         142.8342  137.7845  159.2286 C.3     1  UNL1        0.1164
     20 H         140.6005  138.1810  155.6163 H       1  UNL1        0.1510
     21 C         142.0689  136.3472  153.4861 C.3     1  UNL1        0.0230
     22 C         142.0680  137.7204  154.0897 C.3     1  UNL1        0.0910
     23 C         139.1221  140.0344  168.8230 C.3     1  UNL1        0.4187
     24 F         138.5963  140.2427  170.2124 F       1  UNL1       -0.1659
     25 F         137.8724  139.2875  168.4621 F       1  UNL1       -0.1659
     26 F         140.3718  140.7814  169.1839 F       1  UNL1       -0.1659
     27 N         142.9794  140.4333  165.3645 N.pl3   1  UNL1       -0.3290
     28 H         143.5764  139.8030  164.9002 H       1  UNL1        0.1471
     29 C         143.4728  141.8013  165.7320 C.3     1  UNL1        0.1145
     30 C         142.9816  143.0028  164.9802 C.ar    1  UNL1        0.0035
     31 C         143.9552  143.8821  164.2529 C.ar    1  UNL1       -0.0022
     32 C         143.4640  145.0836  163.5011 C.ar    1  UNL1        0.0060
     33 C         141.9991  145.4058  163.4766 C.ar    1  UNL1        0.0752
     34 C         141.0256  144.5265  164.2039 C.ar    1  UNL1        0.2898
     35 C         141.5168  143.3250  164.9557 C.ar    1  UNL1        0.0727
     36 N         139.5608  144.8486  164.1794 N.pl3   1  UNL1        0.0809
     37 O         138.7813  144.8938  165.4602 O.2     1  UNL1        0.0415
     38 O         138.8755  145.1255  162.8742 O.co2   1  UNL1       -0.5760
@<TRIPOS>UNITY_ATOM_ATTR
36 1
charge 1
38 1
charge -1
@<TRIPOS>BOND
     1    21    22    1
     2    22    11    1
     3    11    12   am
     4    12    13    2
     5    12    14   am
     6    14    15    1
     7    15    16    1
     8    16    17    1
     9    17     1    1
    10     1     2   ar
    11     2     3   ar
    12     3     4   ar
    13     4     5   ar
    14     5     6   ar
    15     6    23    1
    16    23    24    1
    17    23    25    1
    18    23    26    1
    19     6     7   ar
    20     7     8   ar
    21     8    27    1
    22    27    29    1
    23    29    30    1
    24    30    31   ar
    25    31    32   ar
    26    32    33   ar
    27    33    34   ar
    28    34    36    1
    29    36    37    2
    30    36    38    1
    31    34    35   ar
    32     8     9   ar
    33     9    10   ar
    34    17    18    1
    35    18    19    1
    36    19    14    1
    37    10     1   ar
    38     9     4   ar
    39    35    30   ar
    40    11    20    1
    41    27    28    1
@<TRIPOS>MOLECULE
*****
 38 41 0 0 0
SMALL
GASTEIGER

@<TRIPOS>ATOM
      1 C         142.3414  142.5926  159.1656 C.ar    1  UNL1        0.0674
      2 C         140.9949  141.9605  158.9725 C.ar    1  UNL1        0.1133
      3 N         139.9021  142.2036  159.9708 N.ar    1  UNL1       -0.2425
      4 C         140.1559  143.0788  161.1623 C.ar    1  UNL1        0.0825
      5 C         139.0631  143.3219  162.1607 C.ar    1  UNL1        0.0230
      6 C         139.3168  144.1972  163.3521 C.ar    1  UNL1        0.0741
      7 C         140.6634  144.8293  163.5452 C.ar    1  UNL1        0.0183
      8 C         141.7562  144.5862  162.5468 C.ar    1  UNL1        0.0463
      9 C         141.5024  143.7109  161.3554 C.ar    1  UNL1        0.0320
     10 C         142.5951  143.4678  160.3570 C.ar    1  UNL1        0.0188
     11 N         148.1393  141.9038  155.5379 N.am    1  UNL1       -0.2888
     12 C         146.7125  141.6202  155.1721 C.2     1  UNL1        0.3041
     13 O         146.3785  141.0934  153.8079 O.2     1  UNL1       -0.2526
     14 N         145.6198  141.8633  156.1704 N.am    1  UNL1       -0.2607
     15 C         145.9538  142.3900  157.5346 C.3     1  UNL1        0.1164
     16 C         144.8610  142.6332  158.5330 C.3     1  UNL1        0.1124
     17 N         143.4342  142.3495  158.1672 N.pl3   1  UNL1       -0.3028
     18 C         143.1002  141.8227  156.8030 C.3     1  UNL1        0.1124
     19 C         144.1929  141.5796  155.8047 C.3     1  UNL1        0.1164
     20 H         148.3585  142.2496  156.4332 H       1  UNL1        0.1510
     21 C         150.6666  141.8407  154.9391 C.3     1  UNL1        0.0230
     22 C         149.2321  141.6607  154.5395 C.3     1  UNL1        0.0910
     23 C         138.2241  144.4403  164.3505 C.3     1  UNL1        0.4187
     24 F         137.1312  144.6834  165.3488 F       1  UNL1       -0.1659
     25 F         137.1991  144.2842  163.2666 F       1  UNL1       -0.1659
     26 F         139.2491  144.5964  165.4344 F       1  UNL1       -0.1659
     27 N         143.1027  145.2183  162.7400 N.pl3   1  UNL1       -0.3290
     28 H         143.3801  145.9700  162.1680 H       1  UNL1        0.1471
     29 C         144.0264  144.7050  163.8045 C.3     1  UNL1        0.1145
     30 C         144.1634  143.2284  164.0305 C.ar    1  UNL1        0.0035
     31 C         145.0428  142.4105  163.1319 C.ar    1  UNL1       -0.0022
     32 C         145.1797  140.9340  163.3579 C.ar    1  UNL1        0.0060
     33 C         144.4372  140.2753  164.4826 C.ar    1  UNL1        0.0752
     34 C         143.5578  141.0933  165.3813 C.ar    1  UNL1        0.2898
     35 C         143.4209  142.5699  165.1552 C.ar    1  UNL1        0.0727
     36 N         142.8154  140.4347  166.5060 N.pl3   1  UNL1        0.0809
     37 O         142.7700  141.0848  167.8570 O.2     1  UNL1        0.0415
     38 O         142.1183  139.1260  166.2797 O.co2   1  UNL1       -0.5760
@<TRIPOS>UNITY_ATOM_ATTR
36 1
charge 1
38 1
charge -1
@<TRIPOS>BOND
     1    21    22    1
     2    22    11    1
     3    11    12   am
     4    12    13    2
     5    12    14   am
     6    14    15    1
     7    15    16    1
     8    16    17    1
     9    17     1    1
    10     1     2   ar
    11     2     3   ar
    12     3     4   ar
    13     4     5   ar
    14     5     6   ar
    15     6    23    1
    16    23    24    1
    17    23    25    1
    18    23    26    1
    19     6     7   ar
    20     7     8   ar
    21     8    27    1
    22    27    29    1
    23    29    30    1
    24    30    31   ar
    25    31    32   ar
    26    32    33   ar
    27    33    34   ar
    28    34    36    1
    29    36    37    2
    30    36    38    1
    31    34    35   ar
    32     8     9   ar
    33     9    10   ar
    34    17    18    1
    35    18    19    1
    36    19    14    1
    37    10     1   ar
    38     9     4   ar
    39    35    30   ar
    40    11    20    1
    41    27    28    1
@<TRIPOS>MOLECULE
*****
 38 41 0 0 0
SMALL
GASTEIGER

@<TRIPOS>ATOM
      1 C         142.6733  140.2159  163.3990 C.ar    1  UNL1        0.0674
      2 C         143.7931  141.1019  163.8583 C.ar    1  UNL1        0.1133
      3 N         143.8256  141.5967  165.2740 N.ar    1  UNL1       -0.2425
      4 C         142.7382  141.2054  166.2304 C.ar    1  UNL1        0.0825
      5 C         142.7708  141.7002  167.6461 C.ar    1  UNL1        0.0230
      6 C         141.6835  141.3090  168.6025 C.ar    1  UNL1        0.0741
      7 C         140.5636  140.4229  168.1431 C.ar    1  UNL1        0.0183
      8 C         140.5311  139.9282  166.7275 C.ar    1  UNL1        0.0463
      9 C         141.6184  140.3194  165.7711 C.ar    1  UNL1        0.0320
     10 C         141.5859  139.8247  164.3554 C.ar    1  UNL1        0.0188
     11 N         141.3457  137.4882  157.2308 N.am    1  UNL1       -0.2888
     12 C         142.5432  138.2368  157.7363 C.2     1  UNL1        0.3041
     13 O         143.7081  138.4907  156.8261 O.2     1  UNL1       -0.2526
     14 N         142.5757  138.7316  159.1519 N.am    1  UNL1       -0.2607
     15 C         141.4107  138.4777  160.0621 C.3     1  UNL1        0.1164
     16 C         141.4432  138.9725  161.4778 C.3     1  UNL1        0.1124
     17 N         142.6407  139.7211  161.9833 N.pl3   1  UNL1       -0.3028
     18 C         143.8057  139.9750  161.0732 C.3     1  UNL1        0.1124
     19 C         143.7732  139.4803  159.6575 C.3     1  UNL1        0.1164
     20 H         140.5811  137.3216  157.8282 H       1  UNL1        0.1510
     21 C         141.4322  135.5255  155.5307 C.3     1  UNL1        0.0230
     22 C         141.3132  136.9934  155.8151 C.3     1  UNL1        0.0910
     23 C         141.7160  141.8037  170.0181 C.3     1  UNL1        0.4187
     24 F         141.7485  142.2985  171.4338 F       1  UNL1       -0.1659
     25 F         141.9152  143.2057  169.5236 F       1  UNL1       -0.1659
     26 F         141.5167  140.4017  170.5127 F       1  UNL1       -0.1659
     27 N         139.4113  139.0422  166.2682 N.pl3   1  UNL1       -0.3290
     28 H         139.5226  138.0640  166.2762 H       1  UNL1        0.1471
     29 C         138.1219  139.6465  165.7966 C.3     1  UNL1        0.1145
     30 C         138.0995  140.4951  164.5599 C.ar    1  UNL1        0.0035
     31 C         137.9623  139.8523  163.2116 C.ar    1  UNL1       -0.0022
     32 C         137.9398  140.7008  161.9749 C.ar    1  UNL1        0.0060
     33 C         138.0545  142.1923  162.0865 C.ar    1  UNL1        0.0752
     34 C         138.1917  142.8352  163.4348 C.ar    1  UNL1        0.2898
     35 C         138.2142  141.9865  164.6715 C.ar    1  UNL1        0.0727
     36 N         138.3064  144.3266  163.5464 N.pl3   1  UNL1        0.0809
     37 O         138.6012  144.9588  164.8743 O.2     1  UNL1        0.0415
     38 O         138.1264  145.1857  162.3301 O.co2   1  UNL1       -0.5760
@<TRIPOS>UNITY_ATOM_ATTR
36 1
charge 1
38 1
charge -1
@<TRIPOS>BOND
     1    21    22    1
     2    22    11    1
     3    11    12   am
     4    12    13    2
     5    12    14   am
     6    14    15    1
     7    15    16    1
     8    16    17    1
     9    17     1    1
    10     1     2   ar
    11     2     3   ar
    12     3     4   ar
    13     4     5   ar
    14     5     6   ar
    15     6    23    1
    16    23    24    1
    17    23    25    1
    18    23    26    1
    19     6     7   ar
    20     7     8   ar
    21     8    27    1
    22    27    29    1
    23    29    30    1
    24    30    31   ar
    25    31    32   ar
    26    32    33   ar
    27    33    34   ar
    28    34    36    1
    29    36    37    2
    30    36    38    1
    31    34    35   ar
    32     8     9   ar
    33     9    10   ar
    34    17    18    1
    35    18    19    1
    36    19    14    1
    37    10     1   ar
    38     9     4   ar
    39    35    30   ar
    40    11    20    1
    41    27    28    1
