@<TRIPOS>MOLECULE
*****
 41 46 0 0 0
SMALL
GASTEIGER

@<TRIPOS>ATOM
      1 C         141.2390  138.7597  161.7420 C.3     1  UNL1        0.0758
      2 C         140.4241  139.3170  160.6125 C.3     1  UNL1        0.0370
      3 C         140.8804  139.1314  159.1957 C.3     1  UNL1        0.0741
      4 N         142.1514  138.3885  158.9083 N.3     1  UNL1       -0.2688
      5 C         142.9662  137.8312  160.0376 C.3     1  UNL1        0.0741
      6 C         142.5100  138.0168  161.4545 C.3     1  UNL1        0.0370
      7 O         142.0138  141.2310  163.2558 O.2     1  UNL1       -0.2526
      8 C         141.1702  140.1810  163.9157 C.2     1  UNL1        0.3044
      9 N         140.7828  138.9452  163.1588 N.am    1  UNL1       -0.2903
     10 N         140.7140  140.3665  165.3326 N.am    1  UNL1       -0.2549
     11 C         139.8704  139.3164  165.9925 C.3     1  UNL1        0.1200
     12 C         139.4141  139.5019  167.4094 C.3     1  UNL1        0.1273
     13 N         139.8016  140.7376  168.1662 N.ar    1  UNL1       -0.3260
     14 C         139.5031  141.1935  169.5638 C.ar    1  UNL1        0.0758
     15 C         140.1622  142.5254  169.7675 C.ar    1  UNL1        0.0199
     16 C         140.8681  142.8927  168.4960 C.ar    1  UNL1        0.0163
     17 C         140.6452  141.7878  167.5063 C.ar    1  UNL1        0.0597
     18 C         141.1014  141.6022  166.0895 C.3     1  UNL1        0.1376
     19 H         140.2291  138.2560  163.5919 H       1  UNL1        0.1509
     20 C         141.9450  142.6523  165.4295 C.ar    1  UNL1        0.0014
     21 C         143.4380  142.6116  165.5686 C.ar    1  UNL1       -0.0023
     22 C         144.2815  143.6618  164.9086 C.ar    1  UNL1       -0.0003
     23 C         143.6322  144.7527  164.1096 C.ar    1  UNL1       -0.0000
     24 C         142.1391  144.7933  163.9706 C.ar    1  UNL1       -0.0003
     25 C         141.2956  143.7432  164.6305 C.ar    1  UNL1       -0.0023
     26 C         142.6077  138.2029  157.4914 C.3     1  UNL1        0.1007
     27 C         142.3766  136.8950  156.7944 C.ar    1  UNL1        0.0129
     28 C         141.1590  136.5212  156.0019 C.ar    1  UNL1        0.0176
     29 C         141.3524  135.1264  155.4852 C.ar    1  UNL1        0.0799
     30 N         142.6894  134.6381  155.9583 N.ar    1  UNL1       -0.3038
     31 C         143.3224  135.7311  156.7674 C.ar    1  UNL1        0.0772
     32 C         143.2884  133.2928  155.6725 C.ar    1  UNL1        0.0640
     33 C         142.8598  132.5236  154.4582 C.ar    1  UNL1        0.0175
     34 C         143.4587  131.1784  154.1724 C.ar    1  UNL1        0.0053
     35 C         144.4863  130.6024  155.1010 C.ar    1  UNL1        0.0715
     36 C         144.9149  131.3716  156.3153 C.ar    1  UNL1        0.0053
     37 C         144.3160  132.7168  156.6011 C.ar    1  UNL1        0.0175
     38 C         145.0853  129.2572  154.8153 C.3     1  UNL1        0.4186
     39 F         145.6843  127.9120  154.5295 F       1  UNL1       -0.1659
     40 F         145.0548  128.9326  156.2794 F       1  UNL1       -0.1659
     41 F         145.1158  129.5818  153.3511 F       1  UNL1       -0.1659
@<TRIPOS>BOND
     1     7     8    2
     2     8     9   am
     3     9     1    1
     4     1     2    1
     5     2     3    1
     6     3     4    1
     7     4    26    1
     8    26    27    1
     9    27    28   ar
    10    28    29   ar
    11    29    30   ar
    12    30    32    1
    13    32    33   ar
    14    33    34   ar
    15    34    35   ar
    16    35    38    1
    17    38    39    1
    18    38    40    1
    19    38    41    1
    20    35    36   ar
    21    36    37   ar
    22    30    31   ar
    23     4     5    1
    24     5     6    1
    25     8    10   am
    26    10    11    1
    27    11    12    1
    28    12    13    1
    29    13    14   ar
    30    14    15   ar
    31    15    16   ar
    32    16    17   ar
    33    17    18    1
    34    18    20    1
    35    20    21   ar
    36    21    22   ar
    37    22    23   ar
    38    23    24   ar
    39    24    25   ar
    40     6     1    1
    41    18    10    1
    42    25    20   ar
    43    31    27   ar
    44    17    13   ar
    45    37    32   ar
    46     9    19    1
@<TRIPOS>MOLECULE
*****
 41 46 0 0 0
SMALL
GASTEIGER

@<TRIPOS>ATOM
      1 C         141.1181  139.0064  161.5463 C.3     1  UNL1        0.0758
      2 C         140.0919  139.1339  160.4596 C.3     1  UNL1        0.0370
      3 C         140.5006  138.9988  159.0227 C.3     1  UNL1        0.0741
      4 N         141.9352  138.7361  158.6724 N.3     1  UNL1       -0.2688
      5 C         142.9613  138.6086  159.7591 C.3     1  UNL1        0.0741
      6 C         142.5527  138.7438  161.1960 C.3     1  UNL1        0.0370
      7 O         141.8635  141.4666  163.0927 O.2     1  UNL1       -0.2526
      8 C         141.0823  140.3717  163.7564 C.2     1  UNL1        0.3044
      9 N         140.7095  139.1416  162.9832 N.am    1  UNL1       -0.2903
     10 N         140.6736  140.5068  165.1934 N.am    1  UNL1       -0.2549
     11 C         139.8924  139.4119  165.8571 C.3     1  UNL1        0.1200
     12 C         139.4838  139.5470  167.2941 C.3     1  UNL1        0.1273
     13 N         139.8565  140.7771  168.0673 N.ar    1  UNL1       -0.3260
     14 C         139.5954  141.1884  169.4860 C.ar    1  UNL1        0.0758
     15 C         140.2154  142.5375  169.6990 C.ar    1  UNL1        0.0199
     16 C         140.8596  142.9601  168.4120 C.ar    1  UNL1        0.0163
     17 C         140.6379  141.8721  167.4035 C.ar    1  UNL1        0.0597
     18 C         141.0464  141.7369  165.9666 C.3     1  UNL1        0.1376
     19 H         140.1967  138.4229  163.4189 H       1  UNL1        0.1509
     20 C         141.8277  142.8319  165.3028 C.ar    1  UNL1        0.0014
     21 C         143.3265  142.8261  165.3626 C.ar    1  UNL1       -0.0023
     22 C         144.1078  143.9212  164.6988 C.ar    1  UNL1       -0.0003
     23 C         143.3903  145.0219  163.9753 C.ar    1  UNL1       -0.0000
     24 C         141.8915  145.0276  163.9155 C.ar    1  UNL1       -0.0003
     25 C         141.1102  143.9327  164.5792 C.ar    1  UNL1       -0.0023
     26 C         142.3438  138.6010  157.2354 C.3     1  UNL1        0.1007
     27 C         142.9321  137.3127  156.7411 C.ar    1  UNL1        0.0129
     28 C         143.7443  137.1362  155.4924 C.ar    1  UNL1        0.0176
     29 C         144.1257  135.6893  155.3881 C.ar    1  UNL1        0.0799
     30 N         143.5491  134.9715  156.5723 N.ar    1  UNL1       -0.3038
     31 C         142.8114  135.9749  157.4085 C.ar    1  UNL1        0.0772
     32 C         143.6861  133.5074  156.8685 C.ar    1  UNL1        0.0640
     33 C         142.6966  132.5321  156.3035 C.ar    1  UNL1        0.0175
     34 C         142.8336  131.0679  156.5996 C.ar    1  UNL1        0.0053
     35 C         143.9603  130.5793  157.4608 C.ar    1  UNL1        0.0715
     36 C         144.9499  131.5546  158.0259 C.ar    1  UNL1        0.0053
     37 C         144.8129  133.0187  157.7297 C.ar    1  UNL1        0.0175
     38 C         144.0974  129.1152  157.7570 C.3     1  UNL1        0.4186
     39 F         144.2345  127.6511  158.0532 F       1  UNL1       -0.1659
     40 F         143.0352  128.8105  156.7427 F       1  UNL1       -0.1659
     41 F         145.1596  129.4198  158.7713 F       1  UNL1       -0.1659
@<TRIPOS>BOND
     1     7     8    2
     2     8     9   am
     3     9     1    1
     4     1     2    1
     5     2     3    1
     6     3     4    1
     7     4    26    1
     8    26    27    1
     9    27    28   ar
    10    28    29   ar
    11    29    30   ar
    12    30    32    1
    13    32    33   ar
    14    33    34   ar
    15    34    35   ar
    16    35    38    1
    17    38    39    1
    18    38    40    1
    19    38    41    1
    20    35    36   ar
    21    36    37   ar
    22    30    31   ar
    23     4     5    1
    24     5     6    1
    25     8    10   am
    26    10    11    1
    27    11    12    1
    28    12    13    1
    29    13    14   ar
    30    14    15   ar
    31    15    16   ar
    32    16    17   ar
    33    17    18    1
    34    18    20    1
    35    20    21   ar
    36    21    22   ar
    37    22    23   ar
    38    23    24   ar
    39    24    25   ar
    40     6     1    1
    41    18    10    1
    42    25    20   ar
    43    31    27   ar
    44    17    13   ar
    45    37    32   ar
    46     9    19    1
@<TRIPOS>MOLECULE
*****
 41 46 0 0 0
SMALL
GASTEIGER

@<TRIPOS>ATOM
      1 C         142.5173  139.1933  161.9941 C.3     1  UNL1        0.0758
      2 C         143.7170  139.5668  161.1747 C.3     1  UNL1        0.0370
      3 C         143.7065  139.3548  159.6898 C.3     1  UNL1        0.0741
      4 N         142.4965  138.7693  159.0243 N.3     1  UNL1       -0.2688
      5 C         141.2968  138.3958  159.8436 C.3     1  UNL1        0.0741
      6 C         141.3072  138.6078  161.3285 C.3     1  UNL1        0.0370
      7 O         140.9524  141.4520  163.1979 O.2     1  UNL1       -0.2526
      8 C         141.7452  140.5346  164.0808 C.2     1  UNL1        0.3044
      9 N         142.5277  139.4052  163.4790 N.am    1  UNL1       -0.2903
     10 N         141.7556  140.7465  165.5658 N.am    1  UNL1       -0.2549
     11 C         142.5485  139.8292  166.4488 C.3     1  UNL1        0.1200
     12 C         142.5589  140.0411  167.9337 C.3     1  UNL1        0.1273
     13 N         141.7764  141.1705  168.5356 N.ar    1  UNL1       -0.3260
     14 C         141.5975  141.6234  169.9543 C.ar    1  UNL1        0.0758
     15 C         140.6941  142.8208  169.9481 C.ar    1  UNL1        0.0199
     16 C         140.3146  143.1079  168.5255 C.ar    1  UNL1        0.0163
     17 C         140.9836  142.0879  167.6526 C.ar    1  UNL1        0.0597
     18 C         140.9732  141.8759  166.1677 C.3     1  UNL1        0.1376
     19 H         143.0481  138.8031  164.0585 H       1  UNL1        0.1509
     20 C         140.1803  142.7933  165.2846 C.ar    1  UNL1        0.0014
     21 C         140.8276  144.0110  164.6944 C.ar    1  UNL1       -0.0023
     22 C         140.0347  144.9283  163.8114 C.ar    1  UNL1       -0.0003
     23 C         138.5945  144.6281  163.5185 C.ar    1  UNL1       -0.0000
     24 C         137.9472  143.4103  164.1087 C.ar    1  UNL1       -0.0003
     25 C         138.7401  142.4930  164.9917 C.ar    1  UNL1       -0.0023
     26 C         142.4860  138.5573  157.5393 C.3     1  UNL1        0.1007
     27 C         142.9835  137.2650  156.9627 C.ar    1  UNL1        0.0129
     28 C         143.5991  137.0834  155.6069 C.ar    1  UNL1        0.0176
     29 C         143.9487  135.6336  155.4470 C.ar    1  UNL1        0.0799
     30 N         143.5493  134.9191  156.7039 N.ar    1  UNL1       -0.3038
     31 C         142.9528  135.9273  157.6407 C.ar    1  UNL1        0.0772
     32 C         143.7170  133.4535  156.9763 C.ar    1  UNL1        0.0640
     33 C         144.8767  132.9709  157.7960 C.ar    1  UNL1        0.0175
     34 C         145.0444  131.5053  158.0684 C.ar    1  UNL1        0.0053
     35 C         144.0522  130.5225  157.5210 C.ar    1  UNL1        0.0715
     36 C         142.8924  131.0052  156.7013 C.ar    1  UNL1        0.0053
     37 C         142.7248  132.4707  156.4290 C.ar    1  UNL1        0.0175
     38 C         144.2199  129.0570  157.7934 C.3     1  UNL1        0.4186
     39 F         144.3875  127.5915  158.0658 F       1  UNL1       -0.1659
     40 F         143.6649  129.2500  159.1735 F       1  UNL1       -0.1659
     41 F         144.7748  128.8640  156.4133 F       1  UNL1       -0.1659
@<TRIPOS>BOND
     1     7     8    2
     2     8     9   am
     3     9     1    1
     4     1     2    1
     5     2     3    1
     6     3     4    1
     7     4    26    1
     8    26    27    1
     9    27    28   ar
    10    28    29   ar
    11    29    30   ar
    12    30    32    1
    13    32    33   ar
    14    33    34   ar
    15    34    35   ar
    16    35    38    1
    17    38    39    1
    18    38    40    1
    19    38    41    1
    20    35    36   ar
    21    36    37   ar
    22    30    31   ar
    23     4     5    1
    24     5     6    1
    25     8    10   am
    26    10    11    1
    27    11    12    1
    28    12    13    1
    29    13    14   ar
    30    14    15   ar
    31    15    16   ar
    32    16    17   ar
    33    17    18    1
    34    18    20    1
    35    20    21   ar
    36    21    22   ar
    37    22    23   ar
    38    23    24   ar
    39    24    25   ar
    40     6     1    1
    41    18    10    1
    42    25    20   ar
    43    31    27   ar
    44    17    13   ar
    45    37    32   ar
    46     9    19    1
@<TRIPOS>MOLECULE
*****
 41 46 0 0 0
SMALL
GASTEIGER

@<TRIPOS>ATOM
      1 C         138.9725  140.7498  161.7275 C.3     1  UNL1        0.0758
      2 C         139.1652  139.6018  160.7814 C.3     1  UNL1        0.0370
      3 C         139.1031  139.8320  159.3005 C.3     1  UNL1        0.0741
      4 N         138.8483  141.2099  158.7657 N.3     1  UNL1       -0.2688
      5 C         138.6556  142.3579  159.7117 C.3     1  UNL1        0.0741
      6 C         138.7177  142.1278  161.1926 C.3     1  UNL1        0.0370
      7 O         141.5805  141.0365  163.1821 O.2     1  UNL1       -0.2526
      8 C         140.3386  140.6631  163.9357 C.2     1  UNL1        0.3044
      9 N         139.0346  140.5197  163.2085 N.am    1  UNL1       -0.2903
     10 N         140.4007  140.4330  165.4167 N.am    1  UNL1       -0.2549
     11 C         139.1588  140.0596  166.1704 C.3     1  UNL1        0.1200
     12 C         139.2208  139.8295  167.6514 C.3     1  UNL1        0.1273
     13 N         140.5249  139.9729  168.3786 N.ar    1  UNL1       -0.3260
     14 C         140.8912  139.8099  169.8240 C.ar    1  UNL1        0.0758
     15 C         142.3596  140.0826  169.9636 C.ar    1  UNL1        0.0199
     16 C         142.9007  140.4142  168.6045 C.ar    1  UNL1        0.0163
     17 C         141.7668  140.3464  167.6249 C.ar    1  UNL1        0.0597
     18 C         141.7047  140.5764  166.1439 C.3     1  UNL1        0.1376
     19 H         138.2195  140.2746  163.7032 H       1  UNL1        0.1509
     20 C         142.9467  140.9499  165.3902 C.ar    1  UNL1        0.0014
     21 C         143.8101  139.8800  164.7902 C.ar    1  UNL1       -0.0023
     22 C         145.0521  140.2536  164.0365 C.ar    1  UNL1       -0.0003
     23 C         145.4306  141.6969  163.8828 C.ar    1  UNL1       -0.0000
     24 C         144.5671  142.7667  164.4828 C.ar    1  UNL1       -0.0003
     25 C         143.3253  142.3932  165.2365 C.ar    1  UNL1       -0.0023
     26 C         138.7862  141.4401  157.2847 C.3     1  UNL1        0.1007
     27 C         137.4728  141.3485  156.5660 C.ar    1  UNL1        0.0129
     28 C         137.1832  141.8680  155.1888 C.ar    1  UNL1        0.0176
     29 C         135.7498  141.5620  154.8699 C.ar    1  UNL1        0.0799
     30 N         135.1535  140.8534  156.0499 N.ar    1  UNL1       -0.3038
     31 C         136.2184  140.7215  157.0981 C.ar    1  UNL1        0.0772
     32 C         133.7404  140.3629  156.1620 C.ar    1  UNL1        0.0640
     33 C         132.6015  141.2649  155.7890 C.ar    1  UNL1        0.0175
     34 C         131.1884  140.7744  155.9011 C.ar    1  UNL1        0.0053
     35 C         130.9143  139.3818  156.3863 C.ar    1  UNL1        0.0715
     36 C         132.0532  138.4797  156.7594 C.ar    1  UNL1        0.0053
     37 C         133.4662  138.9703  156.6473 C.ar    1  UNL1        0.0175
     38 C         129.5012  138.8912  156.4985 C.3     1  UNL1        0.4186
     39 F         128.0881  138.4006  156.6107 F       1  UNL1       -0.1659
     40 F         129.9831  137.4758  156.3786 F       1  UNL1       -0.1659
     41 F         129.0193  140.3066  156.6184 F       1  UNL1       -0.1659
@<TRIPOS>BOND
     1     7     8    2
     2     8     9   am
     3     9     1    1
     4     1     2    1
     5     2     3    1
     6     3     4    1
     7     4    26    1
     8    26    27    1
     9    27    28   ar
    10    28    29   ar
    11    29    30   ar
    12    30    32    1
    13    32    33   ar
    14    33    34   ar
    15    34    35   ar
    16    35    38    1
    17    38    39    1
    18    38    40    1
    19    38    41    1
    20    35    36   ar
    21    36    37   ar
    22    30    31   ar
    23     4     5    1
    24     5     6    1
    25     8    10   am
    26    10    11    1
    27    11    12    1
    28    12    13    1
    29    13    14   ar
    30    14    15   ar
    31    15    16   ar
    32    16    17   ar
    33    17    18    1
    34    18    20    1
    35    20    21   ar
    36    21    22   ar
    37    22    23   ar
    38    23    24   ar
    39    24    25   ar
    40     6     1    1
    41    18    10    1
    42    25    20   ar
    43    31    27   ar
    44    17    13   ar
    45    37    32   ar
    46     9    19    1
@<TRIPOS>MOLECULE
*****
 41 46 0 0 0
SMALL
GASTEIGER

@<TRIPOS>ATOM
      1 C         139.1319  139.6762  161.7474 C.3     1  UNL1        0.0758
      2 C         139.2640  138.3788  161.0062 C.3     1  UNL1        0.0370
      3 C         139.2733  138.3697  159.5062 C.3     1  UNL1        0.0741
      4 N         139.1506  139.6577  158.7476 N.3     1  UNL1       -0.2688
      5 C         139.0185  140.9551  159.4887 C.3     1  UNL1        0.0741
      6 C         139.0092  140.9644  160.9887 C.3     1  UNL1        0.0370
      7 O         141.6682  140.2045  163.2600 O.2     1  UNL1       -0.2526
      8 C         140.3908  139.9496  164.0036 C.2     1  UNL1        0.3044
      9 N         139.1226  139.6855  163.2474 N.am    1  UNL1       -0.2903
     10 N         140.3814  139.9589  165.5036 N.am    1  UNL1       -0.2549
     11 C         139.1039  139.7040  166.2472 C.3     1  UNL1        0.1200
     12 C         139.0945  139.7133  167.7472 C.3     1  UNL1        0.1273
     13 N         140.3627  139.9774  168.5035 N.ar    1  UNL1       -0.3260
     14 C         140.6591  140.0487  169.9722 C.ar    1  UNL1        0.0758
     15 C         142.1198  140.3477  170.1362 C.ar    1  UNL1        0.0199
     16 C         142.7262  140.4611  168.7689 C.ar    1  UNL1        0.0163
     17 C         141.6402  140.2322  167.7598 C.ar    1  UNL1        0.0597
     18 C         141.6495  140.2230  166.2599 C.3     1  UNL1        0.1376
     19 H         138.2841  139.5182  163.7355 H       1  UNL1        0.1509
     20 C         142.9270  140.4778  165.5162 C.ar    1  UNL1        0.0014
     21 C         143.3563  141.8849  165.2231 C.ar    1  UNL1       -0.0023
     22 C         144.6339  142.1396  164.4794 C.ar    1  UNL1       -0.0003
     23 C         145.4821  140.9875  164.0288 C.ar    1  UNL1       -0.0000
     24 C         145.0527  139.5804  164.3220 C.ar    1  UNL1       -0.0003
     25 C         143.7753  139.3256  165.0656 C.ar    1  UNL1       -0.0023
     26 C         139.1599  139.6485  157.2476 C.3     1  UNL1        0.1007
     27 C         140.1914  138.8483  156.5089 C.ar    1  UNL1        0.0129
     28 C         141.0169  139.3276  155.3518 C.ar    1  UNL1        0.0176
     29 C         141.9142  138.2038  154.9255 C.ar    1  UNL1        0.0799
     30 N         141.6432  137.0299  155.8190 N.ar    1  UNL1       -0.3038
     31 C         140.5785  137.4281  156.7976 C.ar    1  UNL1        0.0772
     32 C         142.3185  135.6923  155.7466 C.ar    1  UNL1        0.0640
     33 C         142.1243  134.8182  154.5434 C.ar    1  UNL1        0.0175
     34 C         142.7995  133.4807  154.4710 C.ar    1  UNL1        0.0053
     35 C         143.6690  133.0174  155.6021 C.ar    1  UNL1        0.0715
     36 C         143.8633  133.8916  156.8054 C.ar    1  UNL1        0.0053
     37 C         143.1880  135.2291  156.8777 C.ar    1  UNL1        0.0175
     38 C         144.3443  131.6800  155.5298 C.3     1  UNL1        0.4186
     39 F         145.0195  130.3425  155.4575 F       1  UNL1       -0.1659
     40 F         145.3305  132.1217  156.5701 F       1  UNL1       -0.1659
     41 F         143.3581  131.2383  154.4895 F       1  UNL1       -0.1659
@<TRIPOS>BOND
     1     7     8    2
     2     8     9   am
     3     9     1    1
     4     1     2    1
     5     2     3    1
     6     3     4    1
     7     4    26    1
     8    26    27    1
     9    27    28   ar
    10    28    29   ar
    11    29    30   ar
    12    30    32    1
    13    32    33   ar
    14    33    34   ar
    15    34    35   ar
    16    35    38    1
    17    38    39    1
    18    38    40    1
    19    38    41    1
    20    35    36   ar
    21    36    37   ar
    22    30    31   ar
    23     4     5    1
    24     5     6    1
    25     8    10   am
    26    10    11    1
    27    11    12    1
    28    12    13    1
    29    13    14   ar
    30    14    15   ar
    31    15    16   ar
    32    16    17   ar
    33    17    18    1
    34    18    20    1
    35    20    21   ar
    36    21    22   ar
    37    22    23   ar
    38    23    24   ar
    39    24    25   ar
    40     6     1    1
    41    18    10    1
    42    25    20   ar
    43    31    27   ar
    44    17    13   ar
    45    37    32   ar
    46     9    19    1
@<TRIPOS>MOLECULE
*****
 41 46 0 0 0
SMALL
GASTEIGER

@<TRIPOS>ATOM
      1 C         142.0755  138.4778  162.1232 C.3     1  UNL1        0.0758
      2 C         143.2468  138.1096  161.2613 C.3     1  UNL1        0.0370
      3 C         143.0751  137.9839  159.7765 C.3     1  UNL1        0.0741
      4 N         141.7324  138.2264  159.1535 N.3     1  UNL1       -0.2688
      5 C         140.5612  138.5946  160.0153 C.3     1  UNL1        0.0741
      6 C         140.7328  138.7203  161.5001 C.3     1  UNL1        0.0370
      7 O         142.2952  141.1913  163.3834 O.2     1  UNL1       -0.2526
      8 C         142.3569  139.9603  164.2381 C.2     1  UNL1        0.3044
      9 N         142.2471  138.6035  163.6080 N.am    1  UNL1       -0.2903
     10 N         142.5285  140.0859  165.7230 N.am    1  UNL1       -0.2549
     11 C         142.5902  138.8549  166.5777 C.3     1  UNL1        0.1200
     12 C         142.7618  138.9806  168.0626 C.3     1  UNL1        0.1273
     13 N         142.8716  140.3374  168.6927 N.ar    1  UNL1       -0.3260
     14 C         143.0452  140.7709  170.1181 C.ar    1  UNL1        0.0758
     15 C         143.0908  142.2700  170.1443 C.ar    1  UNL1        0.0199
     16 C         142.9454  142.7629  168.7351 C.ar    1  UNL1        0.0163
     17 C         142.8099  141.5685  167.8379 C.ar    1  UNL1        0.0597
     18 C         142.6383  141.4427  166.3531 C.3     1  UNL1        0.1376
     19 H         142.2876  137.7955  164.1690 H       1  UNL1        0.1509
     20 C         142.5766  142.6738  165.4983 C.ar    1  UNL1        0.0014
     21 C         143.8434  143.3188  165.0196 C.ar    1  UNL1       -0.0023
     22 C         143.7816  144.5500  164.1649 C.ar    1  UNL1       -0.0003
     23 C         142.4531  145.1360  163.7888 C.ar    1  UNL1       -0.0000
     24 C         141.1862  144.4910  164.2675 C.ar    1  UNL1       -0.0003
     25 C         141.2480  143.2600  165.1222 C.ar    1  UNL1       -0.0023
     26 C         141.5608  138.1007  157.6686 C.3     1  UNL1        0.1007
     27 C         142.7363  138.2995  156.7583 C.ar    1  UNL1        0.0129
     28 C         143.3735  137.2483  155.8987 C.ar    1  UNL1        0.0176
     29 C         144.5120  137.8836  155.1569 C.ar    1  UNL1        0.0799
     30 N         144.5784  139.3274  155.5581 N.ar    1  UNL1       -0.3038
     31 C         143.4809  139.5845  156.5478 C.ar    1  UNL1        0.0772
     32 C         145.5684  140.3370  155.0574 C.ar    1  UNL1        0.0640
     33 C         146.2596  141.2527  156.0236 C.ar    1  UNL1        0.0175
     34 C         147.2497  142.2623  155.5229 C.ar    1  UNL1        0.0053
     35 C         147.5484  142.3561  154.0560 C.ar    1  UNL1        0.0715
     36 C         146.8571  141.4404  153.0897 C.ar    1  UNL1        0.0053
     37 C         145.8671  140.4309  153.5905 C.ar    1  UNL1        0.0175
     38 C         148.5384  143.3657  153.5553 C.3     1  UNL1        0.4186
     39 F         149.5284  144.3752  153.0546 F       1  UNL1       -0.1659
     40 F         149.4270  142.2564  153.0757 F       1  UNL1       -0.1659
     41 F         147.6498  144.4749  154.0348 F       1  UNL1       -0.1659
@<TRIPOS>BOND
     1     7     8    2
     2     8     9   am
     3     9     1    1
     4     1     2    1
     5     2     3    1
     6     3     4    1
     7     4    26    1
     8    26    27    1
     9    27    28   ar
    10    28    29   ar
    11    29    30   ar
    12    30    32    1
    13    32    33   ar
    14    33    34   ar
    15    34    35   ar
    16    35    38    1
    17    38    39    1
    18    38    40    1
    19    38    41    1
    20    35    36   ar
    21    36    37   ar
    22    30    31   ar
    23     4     5    1
    24     5     6    1
    25     8    10   am
    26    10    11    1
    27    11    12    1
    28    12    13    1
    29    13    14   ar
    30    14    15   ar
    31    15    16   ar
    32    16    17   ar
    33    17    18    1
    34    18    20    1
    35    20    21   ar
    36    21    22   ar
    37    22    23   ar
    38    23    24   ar
    39    24    25   ar
    40     6     1    1
    41    18    10    1
    42    25    20   ar
    43    31    27   ar
    44    17    13   ar
    45    37    32   ar
    46     9    19    1
@<TRIPOS>MOLECULE
*****
 41 46 0 0 0
SMALL
GASTEIGER

@<TRIPOS>ATOM
      1 C         142.5531  138.8118  159.4481 C.3     1  UNL1        0.0758
      2 C         143.5961  139.8822  159.5770 C.3     1  UNL1        0.0370
      3 C         143.2118  141.2495  160.0595 C.3     1  UNL1        0.0741
      4 N         141.7847  141.5464  160.4130 N.3     1  UNL1       -0.2688
      5 C         140.7417  140.4761  160.2841 C.3     1  UNL1        0.0741
      6 C         141.1259  139.1088  159.8017 C.3     1  UNL1        0.0370
      7 O         141.7348  137.9028  156.7088 O.2     1  UNL1       -0.2526
      8 C         142.5281  136.9900  157.5960 C.2     1  UNL1        0.3044
      9 N         142.9373  137.4445  158.9656 N.am    1  UNL1       -0.2903
     10 N         142.9124  135.6226  157.1135 N.am    1  UNL1       -0.2549
     11 C         143.7058  134.7098  158.0007 C.3     1  UNL1        0.1200
     12 C         144.0900  133.3424  157.5183 C.3     1  UNL1        0.1273
     13 N         143.6808  132.8880  156.1486 N.ar    1  UNL1       -0.3260
     14 C         143.9123  131.6055  155.4058 C.ar    1  UNL1        0.0758
     15 C         143.2620  131.7258  154.0595 C.ar    1  UNL1        0.0199
     16 C         142.6286  133.0826  153.9703 C.ar    1  UNL1        0.0163
     17 C         142.8874  133.8008  155.2614 C.ar    1  UNL1        0.0597
     18 C         142.5032  135.1682  155.7439 C.3     1  UNL1        0.1376
     19 H         143.4581  136.8453  159.5479 H       1  UNL1        0.1509
     20 C         141.7098  136.0811  154.8567 C.ar    1  UNL1        0.0014
     21 C         142.4145  136.9907  153.8944 C.ar    1  UNL1       -0.0023
     22 C         141.6210  137.9036  153.0072 C.ar    1  UNL1       -0.0003
     23 C         140.1229  137.9068  153.0822 C.ar    1  UNL1       -0.0000
     24 C         139.4182  136.9971  154.0445 C.ar    1  UNL1       -0.0003
     25 C         140.2116  136.0843  154.9317 C.ar    1  UNL1       -0.0023
     26 C         141.4004  142.9138  160.8955 C.3     1  UNL1        0.1007
     27 C         141.1247  143.1452  162.3516 C.ar    1  UNL1        0.0129
     28 C         140.9751  144.4801  163.0195 C.ar    1  UNL1        0.0176
     29 C         140.7081  144.2422  164.4762 C.ar    1  UNL1        0.0799
     30 N         140.6927  142.7605  164.7087 N.ar    1  UNL1       -0.3038
     31 C         140.9501  142.0825  163.3957 C.ar    1  UNL1        0.0772
     32 C         140.4605  142.0767  166.0235 C.ar    1  UNL1        0.0640
     33 C         139.7311  140.7669  166.0692 C.ar    1  UNL1        0.0175
     34 C         139.4989  140.0830  167.3840 C.ar    1  UNL1        0.0053
     35 C         139.9963  140.7092  168.6531 C.ar    1  UNL1        0.0715
     36 C         140.7257  142.0191  168.6074 C.ar    1  UNL1        0.0053
     37 C         140.9579  142.7028  167.2926 C.ar    1  UNL1        0.0175
     38 C         139.7641  140.0255  169.9678 C.3     1  UNL1        0.4186
     39 F         139.5320  139.3417  171.2826 F       1  UNL1       -0.1659
     40 F         138.3580  140.5472  169.9909 F       1  UNL1       -0.1659
     41 F         141.1703  139.5037  169.9448 F       1  UNL1       -0.1659
@<TRIPOS>BOND
     1     7     8    2
     2     8     9   am
     3     9     1    1
     4     1     2    1
     5     2     3    1
     6     3     4    1
     7     4    26    1
     8    26    27    1
     9    27    28   ar
    10    28    29   ar
    11    29    30   ar
    12    30    32    1
    13    32    33   ar
    14    33    34   ar
    15    34    35   ar
    16    35    38    1
    17    38    39    1
    18    38    40    1
    19    38    41    1
    20    35    36   ar
    21    36    37   ar
    22    30    31   ar
    23     4     5    1
    24     5     6    1
    25     8    10   am
    26    10    11    1
    27    11    12    1
    28    12    13    1
    29    13    14   ar
    30    14    15   ar
    31    15    16   ar
    32    16    17   ar
    33    17    18    1
    34    18    20    1
    35    20    21   ar
    36    21    22   ar
    37    22    23   ar
    38    23    24   ar
    39    24    25   ar
    40     6     1    1
    41    18    10    1
    42    25    20   ar
    43    31    27   ar
    44    17    13   ar
    45    37    32   ar
    46     9    19    1
@<TRIPOS>MOLECULE
*****
 41 46 0 0 0
SMALL
GASTEIGER

@<TRIPOS>ATOM
      1 C         138.8588  140.2234  162.1394 C.3     1  UNL1        0.0758
      2 C         139.0643  138.9997  161.2965 C.3     1  UNL1        0.0370
      3 C         138.9517  139.0900  159.8034 C.3     1  UNL1        0.0741
      4 N         138.6337  140.4037  159.1533 N.3     1  UNL1       -0.2688
      5 C         138.4282  141.6274  159.9961 C.3     1  UNL1        0.0741
      6 C         138.5408  141.5372  161.4892 C.3     1  UNL1        0.0370
      7 O         141.5243  140.5861  163.4673 O.2     1  UNL1       -0.2526
      8 C         140.3042  140.3147  164.2963 C.2     1  UNL1        0.3044
      9 N         138.9714  140.1333  163.6324 N.am    1  UNL1       -0.2903
     10 N         140.4167  140.2245  165.7895 N.am    1  UNL1       -0.2549
     11 C         139.1965  139.9531  166.6185 C.3     1  UNL1        0.1200
     12 C         139.3091  139.8629  168.1116 C.3     1  UNL1        0.1273
     13 N         140.6418  140.0443  168.7755 N.ar    1  UNL1       -0.3260
     14 C         141.0584  140.0105  170.2161 C.ar    1  UNL1        0.0758
     15 C         142.5360  140.2610  170.2774 C.ar    1  UNL1        0.0199
     16 C         143.0327  140.4497  168.8746 C.ar    1  UNL1        0.0163
     17 C         141.8620  140.3157  167.9464 C.ar    1  UNL1        0.0597
     18 C         141.7495  140.4059  166.4534 C.3     1  UNL1        0.1376
     19 H         138.1705  139.9552  164.1766 H       1  UNL1        0.1509
     20 C         142.9697  140.6773  165.6242 C.ar    1  UNL1        0.0014
     21 C         143.3432  142.0885  165.2791 C.ar    1  UNL1       -0.0023
     22 C         144.5634  142.3598  164.4500 C.ar    1  UNL1       -0.0003
     23 C         145.4101  141.2202  163.9660 C.ar    1  UNL1       -0.0000
     24 C         145.0365  139.8090  164.3111 C.ar    1  UNL1       -0.0003
     25 C         143.8163  139.5376  165.1402 C.ar    1  UNL1       -0.0023
     26 C         138.5211  140.4939  157.6602 C.3     1  UNL1        0.1007
     27 C         139.7326  140.8109  156.8346 C.ar    1  UNL1        0.0129
     28 C         139.7507  141.0625  155.3559 C.ar    1  UNL1        0.0176
     29 C         141.1680  141.3391  154.9501 C.ar    1  UNL1        0.0799
     30 N         142.0259  141.2585  156.1779 N.ar    1  UNL1       -0.3038
     31 C         141.1387  140.9321  157.3426 C.ar    1  UNL1        0.0772
     32 C         143.5103  141.4676  156.2317 C.ar    1  UNL1        0.0640
     33 C         144.3861  140.9092  155.1496 C.ar    1  UNL1        0.0175
     34 C         145.8705  141.1183  155.2034 C.ar    1  UNL1        0.0053
     35 C         146.4790  141.8859  156.3394 C.ar    1  UNL1        0.0715
     36 C         145.6032  142.4443  157.4215 C.ar    1  UNL1        0.0053
     37 C         144.1188  142.2352  157.3677 C.ar    1  UNL1        0.0175
     38 C         147.9634  142.0950  156.3932 C.3     1  UNL1        0.4186
     39 F         149.4478  142.3041  156.4470 F       1  UNL1       -0.1659
     40 F         147.8102  142.8510  157.6796 F       1  UNL1       -0.1659
     41 F         148.1166  141.3390  155.1067 F       1  UNL1       -0.1659
@<TRIPOS>BOND
     1     7     8    2
     2     8     9   am
     3     9     1    1
     4     1     2    1
     5     2     3    1
     6     3     4    1
     7     4    26    1
     8    26    27    1
     9    27    28   ar
    10    28    29   ar
    11    29    30   ar
    12    30    32    1
    13    32    33   ar
    14    33    34   ar
    15    34    35   ar
    16    35    38    1
    17    38    39    1
    18    38    40    1
    19    38    41    1
    20    35    36   ar
    21    36    37   ar
    22    30    31   ar
    23     4     5    1
    24     5     6    1
    25     8    10   am
    26    10    11    1
    27    11    12    1
    28    12    13    1
    29    13    14   ar
    30    14    15   ar
    31    15    16   ar
    32    16    17   ar
    33    17    18    1
    34    18    20    1
    35    20    21   ar
    36    21    22   ar
    37    22    23   ar
    38    23    24   ar
    39    24    25   ar
    40     6     1    1
    41    18    10    1
    42    25    20   ar
    43    31    27   ar
    44    17    13   ar
    45    37    32   ar
    46     9    19    1
@<TRIPOS>MOLECULE
*****
 41 46 0 0 0
SMALL
GASTEIGER

@<TRIPOS>ATOM
      1 C         141.2183  139.8017  158.2125 C.3     1  UNL1        0.0758
      2 C         142.3024  140.4353  157.3918 C.3     1  UNL1        0.0370
      3 C         143.0869  139.6070  156.4179 C.3     1  UNL1        0.0741
      4 N         142.7874  138.1453  156.2646 N.3     1  UNL1       -0.2688
      5 C         141.7034  137.5117  157.0853 C.3     1  UNL1        0.0741
      6 C         140.9189  138.3399  158.0592 C.3     1  UNL1        0.0370
      7 O         142.4419  140.5944  160.8343 O.2     1  UNL1       -0.2526
      8 C         141.0456  141.0262  160.4973 C.2     1  UNL1        0.3044
      9 N         140.4338  140.6299  159.1864 N.am    1  UNL1       -0.2903
     10 N         140.2610  141.8545  161.4712 N.am    1  UNL1       -0.2549
     11 C         138.8647  142.2863  161.1342 C.3     1  UNL1        0.1200
     12 C         138.0800  143.1146  162.1081 C.3     1  UNL1        0.1273
     13 N         138.6919  143.5109  163.4191 N.ar    1  UNL1       -0.3260
     14 C         138.1655  144.3168  164.5695 C.ar    1  UNL1        0.0758
     15 C         139.2366  144.3829  165.6175 C.ar    1  UNL1        0.0199
     16 C         140.4249  143.6180  165.1148 C.ar    1  UNL1        0.0163
     17 C         140.0883  143.0790  163.7561 C.ar    1  UNL1        0.0597
     18 C         140.8728  142.2508  162.7821 C.3     1  UNL1        0.1376
     19 H         139.5173  140.9133  158.9652 H       1  UNL1        0.1509
     20 C         142.2692  141.8190  163.1191 C.ar    1  UNL1        0.0014
     21 C         142.5011  140.5193  163.8312 C.ar    1  UNL1       -0.0023
     22 C         143.8975  140.0875  164.1682 C.ar    1  UNL1       -0.0003
     23 C         145.0621  140.9553  163.7931 C.ar    1  UNL1       -0.0000
     24 C         144.8302  142.2551  163.0810 C.ar    1  UNL1       -0.0003
     25 C         143.4338  142.6869  162.7441 C.ar    1  UNL1       -0.0023
     26 C         143.5720  137.3170  155.2907 C.3     1  UNL1        0.1007
     27 C         143.3782  135.8303  155.2439 C.ar    1  UNL1        0.0129
     28 C         142.6633  135.0677  154.1680 C.ar    1  UNL1        0.0176
     29 C         142.7085  133.6113  154.5239 C.ar    1  UNL1        0.0799
     30 N         143.4514  133.4737  155.8198 N.ar    1  UNL1       -0.3038
     31 C         143.8653  134.8451  156.2647 C.ar    1  UNL1        0.0772
     32 C         143.7312  132.1900  156.5436 C.ar    1  UNL1        0.0640
     33 C         144.8627  132.1138  157.5253 C.ar    1  UNL1        0.0175
     34 C         145.1426  130.8301  158.2491 C.ar    1  UNL1        0.0053
     35 C         144.2909  129.6227  157.9912 C.ar    1  UNL1        0.0715
     36 C         143.1593  129.6989  157.0095 C.ar    1  UNL1        0.0053
     37 C         142.8795  130.9826  156.2857 C.ar    1  UNL1        0.0175
     38 C         144.5707  128.3390  158.7151 C.3     1  UNL1        0.4186
     39 F         144.8505  127.0554  159.4389 F       1  UNL1       -0.1659
     40 F         143.6947  128.7866  159.8474 F       1  UNL1       -0.1659
     41 F         145.4467  127.8915  157.5827 F       1  UNL1       -0.1659
@<TRIPOS>BOND
     1     7     8    2
     2     8     9   am
     3     9     1    1
     4     1     2    1
     5     2     3    1
     6     3     4    1
     7     4    26    1
     8    26    27    1
     9    27    28   ar
    10    28    29   ar
    11    29    30   ar
    12    30    32    1
    13    32    33   ar
    14    33    34   ar
    15    34    35   ar
    16    35    38    1
    17    38    39    1
    18    38    40    1
    19    38    41    1
    20    35    36   ar
    21    36    37   ar
    22    30    31   ar
    23     4     5    1
    24     5     6    1
    25     8    10   am
    26    10    11    1
    27    11    12    1
    28    12    13    1
    29    13    14   ar
    30    14    15   ar
    31    15    16   ar
    32    16    17   ar
    33    17    18    1
    34    18    20    1
    35    20    21   ar
    36    21    22   ar
    37    22    23   ar
    38    23    24   ar
    39    24    25   ar
    40     6     1    1
    41    18    10    1
    42    25    20   ar
    43    31    27   ar
    44    17    13   ar
    45    37    32   ar
    46     9    19    1
