@<TRIPOS>MOLECULE
*****
 41 46 0 0 0
SMALL
GASTEIGER

@<TRIPOS>ATOM
      1 N         140.6007  139.3403  160.2602 N.am    1  UNL1       -0.1907
      2 C         140.2582  140.8004  160.2934 C.2     1  UNL1        0.3219
      3 O         140.1316  141.7036  159.1026 O.2     1  UNL1       -0.2512
      4 N         140.0645  141.1985  161.7265 N.am    1  UNL1       -0.2222
      5 C         140.2872  139.9846  162.5791 C.3     1  UNL1        0.1391
      6 C         140.5376  138.6924  163.2984 C.3     1  UNL1        0.0449
      7 C         140.4452  138.6367  164.7945 C.3     1  UNL1        0.0746
      8 N         140.1024  139.8732  165.5713 N.3     1  UNL1       -0.2676
      9 C         139.8520  141.1654  164.8520 C.3     1  UNL1        0.0746
     10 C         139.9444  141.2211  163.3560 C.3     1  UNL1        0.0449
     11 C         140.6186  138.8362  161.6729 C.2     1  UNL1        0.2529
     12 O         140.9158  137.4304  162.1036 O.2     1  UNL1       -0.2724
     13 C         139.7102  142.5698  162.2205 C.ar    1  UNL1        0.1453
     14 C         140.7922  143.5741  162.4862 C.ar    1  UNL1        0.0922
     15 C         140.4378  144.9454  162.9801 C.ar    1  UNL1        0.2259
     16 O         141.5198  145.9497  163.2458 O.3     1  UNL1       -0.4919
     17 N         139.0014  145.3124  163.2085 N.ar    1  UNL1       -0.1894
     18 C         137.9194  144.3081  162.9428 C.ar    1  UNL1        0.2027
     19 N         138.2738  142.9369  162.4488 N.ar    1  UNL1       -0.2084
     20 H         142.4171  145.7205  163.1032 H       1  UNL1        0.2938
     21 C         141.4290  136.9011  156.5705 C.ar    1  UNL1        0.0073
     22 C         140.0513  137.4395  156.8200 C.ar    1  UNL1        0.0018
     23 C         139.7752  138.2526  158.0499 C.ar    1  UNL1        0.0154
     24 C         140.8768  138.5273  159.0303 C.ar    1  UNL1        0.0622
     25 C         142.2544  137.9889  158.7807 C.ar    1  UNL1        0.0154
     26 C         142.5304  137.1758  157.5509 C.ar    1  UNL1        0.0018
     27 C         142.2118  132.8086  153.3272 C.3     1  UNL1        0.0594
     28 C         142.0649  134.2069  153.8498 C.ar    1  UNL1        0.0882
     29 N         142.1950  135.4667  153.0461 N.ar    1  UNL1       -0.2470
     30 C         141.9726  136.6293  153.9674 C.ar    1  UNL1        0.0655
     31 C         142.0110  138.0788  153.5832 C.3     1  UNL1        0.0526
     32 C         141.7051  136.0880  155.3406 C.ar    1  UNL1        0.0441
     33 S         141.7621  134.5909  155.2679 S.2     1  UNL1       -0.0711
     34 C         140.0100  139.8175  167.0675 C.3     1  UNL1        0.1183
     35 C         140.8129  140.7686  167.9045 C.ar    1  UNL1        0.0712
     36 N         140.1865  142.0335  168.4121 N.ar    1  UNL1       -0.2471
     37 C         140.9895  142.9846  169.2492 C.ar    1  UNL1        0.0985
     38 C         142.4189  142.6709  169.5785 C.ar    1  UNL1        0.0203
     39 C         143.0453  141.4060  169.0708 C.ar    1  UNL1       -0.0015
     40 C         142.2423  140.4549  168.2338 C.ar    1  UNL1       -0.0069
     41 C         142.8687  139.1901  167.7261 C.3     1  UNL1        0.0323
@<TRIPOS>BOND
     1    27    28    1
     2    28    29   ar
     3    29    30   ar
     4    30    31    1
     5    30    32   ar
     6    32    21    1
     7    21    22   ar
     8    22    23   ar
     9    23    24   ar
    10    24     1    1
    11     1     2   am
    12     2     3    2
    13     2     4   am
    14     4    13    1
    15    13    14   ar
    16    14    15   ar
    17    15    16    1
    18    15    17   ar
    19    17    18   ar
    20    18    19   ar
    21     4     5    1
    22     5     6    1
    23     6     7    1
    24     7     8    1
    25     8    34    1
    26    34    35    1
    27    35    36   ar
    28    36    37   ar
    29    37    38   ar
    30    38    39   ar
    31    39    40   ar
    32    40    41    1
    33     8     9    1
    34     9    10    1
    35     5    11    1
    36    11    12    2
    37    24    25   ar
    38    25    26   ar
    39    32    33   ar
    40    33    28   ar
    41    26    21   ar
    42    11     1   am
    43    19    13   ar
    44    10     5    1
    45    40    35   ar
    46    16    20    1
@<TRIPOS>MOLECULE
*****
 41 46 0 0 0
SMALL
GASTEIGER

@<TRIPOS>ATOM
      1 N         141.0567  139.3450  160.6545 N.am    1  UNL1       -0.1907
      2 C         140.4415  140.6974  160.8608 C.2     1  UNL1        0.3219
      3 O         139.8507  141.5694  159.7929 O.2     1  UNL1       -0.2512
      4 N         140.5208  141.0247  162.3225 N.am    1  UNL1       -0.2222
      5 C         141.1850  139.8745  163.0197 C.3     1  UNL1        0.1391
      6 C         141.8594  138.6557  163.5761 C.3     1  UNL1        0.0449
      7 C         142.1427  138.5604  165.0459 C.3     1  UNL1        0.0746
      8 N         141.7515  139.6839  165.9595 N.3     1  UNL1       -0.2676
      9 C         141.0771  140.9028  165.4032 C.3     1  UNL1        0.0746
     10 C         140.7938  140.9980  163.9333 C.3     1  UNL1        0.0449
     11 C         141.5162  138.8364  161.9889 C.2     1  UNL1        0.2529
     12 O         142.1889  137.5208  162.2469 O.2     1  UNL1       -0.2724
     13 C         140.0232  142.2814  162.9729 C.ar    1  UNL1        0.1453
     14 C         140.9160  143.4833  163.0634 C.ar    1  UNL1        0.0922
     15 C         140.4184  144.7400  163.7138 C.ar    1  UNL1        0.2259
     16 O         141.3112  145.9419  163.8043 O.3     1  UNL1       -0.4919
     17 N         139.0279  144.7948  164.2739 N.ar    1  UNL1       -0.1894
     18 C         138.1351  143.5929  164.1834 C.ar    1  UNL1        0.2027
     19 N         138.6327  142.3362  163.5330 N.ar    1  UNL1       -0.2084
     20 H         142.1798  145.9077  163.4544 H       1  UNL1        0.2938
     21 C         141.4541  137.1916  156.7233 C.ar    1  UNL1        0.0073
     22 C         140.1119  137.6858  157.1755 C.ar    1  UNL1        0.0018
     23 C         139.9795  138.4035  158.4859 C.ar    1  UNL1        0.0154
     24 C         141.1892  138.6272  159.3441 C.ar    1  UNL1        0.0622
     25 C         142.5312  138.1331  158.8920 C.ar    1  UNL1        0.0154
     26 C         142.6637  137.4153  157.5816 C.ar    1  UNL1        0.0018
     27 C         141.8135  133.3558  153.1124 C.3     1  UNL1        0.0594
     28 C         141.7518  134.7107  153.7531 C.ar    1  UNL1        0.0882
     29 N         141.8290  136.0278  153.0395 N.ar    1  UNL1       -0.2470
     30 C         141.7269  137.1174  154.0652 C.ar    1  UNL1        0.0655
     31 C         141.7595  138.5919  153.7915 C.3     1  UNL1        0.0526
     32 C         141.5866  136.4738  155.4129 C.ar    1  UNL1        0.0441
     33 S         141.6019  134.9864  155.2200 S.2     1  UNL1       -0.0711
     34 C         142.0348  139.5886  167.4295 C.3     1  UNL1        0.1183
     35 C         141.2584  140.4295  168.3990 C.ar    1  UNL1        0.0712
     36 N         139.9577  139.9279  168.9529 N.ar    1  UNL1       -0.2471
     37 C         139.1813  140.7689  169.9224 C.ar    1  UNL1        0.0985
     38 C         139.7055  142.1114  170.3381 C.ar    1  UNL1        0.0203
     39 C         141.0061  142.6130  169.7842 C.ar    1  UNL1       -0.0015
     40 C         141.7825  141.7721  168.8147 C.ar    1  UNL1       -0.0069
     41 C         143.0832  142.2737  168.2608 C.3     1  UNL1        0.0323
@<TRIPOS>BOND
     1    27    28    1
     2    28    29   ar
     3    29    30   ar
     4    30    31    1
     5    30    32   ar
     6    32    21    1
     7    21    22   ar
     8    22    23   ar
     9    23    24   ar
    10    24     1    1
    11     1     2   am
    12     2     3    2
    13     2     4   am
    14     4    13    1
    15    13    14   ar
    16    14    15   ar
    17    15    16    1
    18    15    17   ar
    19    17    18   ar
    20    18    19   ar
    21     4     5    1
    22     5     6    1
    23     6     7    1
    24     7     8    1
    25     8    34    1
    26    34    35    1
    27    35    36   ar
    28    36    37   ar
    29    37    38   ar
    30    38    39   ar
    31    39    40   ar
    32    40    41    1
    33     8     9    1
    34     9    10    1
    35     5    11    1
    36    11    12    2
    37    24    25   ar
    38    25    26   ar
    39    32    33   ar
    40    33    28   ar
    41    26    21   ar
    42    11     1   am
    43    19    13   ar
    44    10     5    1
    45    40    35   ar
    46    16    20    1
@<TRIPOS>MOLECULE
*****
 41 46 0 0 0
SMALL
GASTEIGER

@<TRIPOS>ATOM
      1 N         141.3946  139.3951  160.4140 N.am    1  UNL1       -0.1907
      2 C         141.9562  140.7801  160.5422 C.2     1  UNL1        0.3219
      3 O         142.5631  141.5913  159.4362 O.2     1  UNL1       -0.2512
      4 N         141.8042  141.2115  161.9708 N.am    1  UNL1       -0.2222
      5 C         141.1487  140.0930  162.7255 C.3     1  UNL1        0.1391
      6 C         140.4912  138.8954  163.3446 C.3     1  UNL1        0.0449
      7 C         140.1490  138.8989  164.8050 C.3     1  UNL1        0.0746
      8 N         140.4641  140.1002  165.6463 N.3     1  UNL1       -0.2676
      9 C         141.1215  141.2978  165.0272 C.3     1  UNL1        0.0746
     10 C         141.4638  141.2943  163.5668 C.3     1  UNL1        0.0449
     11 C         140.8956  138.9704  161.7634 C.2     1  UNL1        0.2529
     12 O         140.2557  137.6543  162.0927 O.2     1  UNL1       -0.2724
     13 C         142.2324  142.5297  162.5441 C.ar    1  UNL1        0.1453
     14 C         141.3168  143.7152  162.4646 C.ar    1  UNL1        0.0922
     15 C         141.7451  145.0334  163.0379 C.ar    1  UNL1        0.2259
     16 O         140.8295  146.2189  162.9584 O.3     1  UNL1       -0.4919
     17 N         143.0891  145.1663  163.6908 N.ar    1  UNL1       -0.1894
     18 C         144.0047  143.9809  163.7703 C.ar    1  UNL1        0.2027
     19 N         143.5764  142.6626  163.1970 N.ar    1  UNL1       -0.2084
     20 H         139.9900  146.1360  162.5506 H       1  UNL1        0.2938
     21 C         141.2352  136.9442  156.6433 C.ar    1  UNL1        0.0073
     22 C         139.9887  137.5909  157.1708 C.ar    1  UNL1        0.0018
     23 C         140.0419  138.4078  158.4277 C.ar    1  UNL1        0.0154
     24 C         141.3415  138.5781  159.1571 C.ar    1  UNL1        0.0622
     25 C         142.5879  137.9315  158.6296 C.ar    1  UNL1        0.0154
     26 C         142.5347  137.1146  157.3727 C.ar    1  UNL1        0.0018
     27 C         141.6370  132.9193  153.2493 C.3     1  UNL1        0.0594
     28 C         141.3667  134.2772  153.8264 C.ar    1  UNL1        0.0882
     29 N         140.8338  135.4630  153.0782 N.ar    1  UNL1       -0.2470
     30 C         140.7196  136.6064  154.0423 C.ar    1  UNL1        0.0655
     31 C         140.2292  137.9867  153.7191 C.3     1  UNL1        0.0526
     32 C         141.1820  136.1273  155.3865 C.ar    1  UNL1        0.0441
     33 S         141.5820  134.6878  155.2530 S.2     1  UNL1       -0.0711
     34 C         140.1218  140.1037  167.1068 C.3     1  UNL1        0.1183
     35 C         140.9060  140.9573  168.0588 C.ar    1  UNL1        0.0712
     36 N         140.3281  142.2479  168.5593 N.ar    1  UNL1       -0.2471
     37 C         141.1124  143.1015  169.5114 C.ar    1  UNL1        0.0985
     38 C         142.4743  142.6645  169.9630 C.ar    1  UNL1        0.0203
     39 C         143.0522  141.3739  169.4625 C.ar    1  UNL1       -0.0015
     40 C         142.2680  140.5203  168.5105 C.ar    1  UNL1       -0.0069
     41 C         142.8459  139.2297  168.0100 C.3     1  UNL1        0.0323
@<TRIPOS>BOND
     1    27    28    1
     2    28    29   ar
     3    29    30   ar
     4    30    31    1
     5    30    32   ar
     6    32    21    1
     7    21    22   ar
     8    22    23   ar
     9    23    24   ar
    10    24     1    1
    11     1     2   am
    12     2     3    2
    13     2     4   am
    14     4    13    1
    15    13    14   ar
    16    14    15   ar
    17    15    16    1
    18    15    17   ar
    19    17    18   ar
    20    18    19   ar
    21     4     5    1
    22     5     6    1
    23     6     7    1
    24     7     8    1
    25     8    34    1
    26    34    35    1
    27    35    36   ar
    28    36    37   ar
    29    37    38   ar
    30    38    39   ar
    31    39    40   ar
    32    40    41    1
    33     8     9    1
    34     9    10    1
    35     5    11    1
    36    11    12    2
    37    24    25   ar
    38    25    26   ar
    39    32    33   ar
    40    33    28   ar
    41    26    21   ar
    42    11     1   am
    43    19    13   ar
    44    10     5    1
    45    40    35   ar
    46    16    20    1
@<TRIPOS>MOLECULE
*****
 41 46 0 0 0
SMALL
GASTEIGER

@<TRIPOS>ATOM
      1 N         143.3089  141.6928  160.5695 N.am    1  UNL1       -0.1907
      2 C         141.9687  142.3426  160.7478 C.2     1  UNL1        0.3219
      3 O         141.2163  143.1126  159.7034 O.2     1  UNL1       -0.2512
      4 N         141.5131  142.0872  162.1539 N.am    1  UNL1       -0.2222
      5 C         142.5716  141.2795  162.8447 C.3     1  UNL1        0.1391
      6 C         143.7104  140.4769  163.4006 C.3     1  UNL1        0.0449
      7 C         143.6668  139.9972  164.8211 C.3     1  UNL1        0.0746
      8 N         142.4843  140.3200  165.6858 N.3     1  UNL1       -0.2676
      9 C         141.3456  141.1226  165.1299 C.3     1  UNL1        0.0746
     10 C         141.3892  141.6023  163.7094 C.3     1  UNL1        0.0449
     11 C         143.6815  141.0357  161.8655 C.2     1  UNL1        0.2529
     12 O         144.9425  140.2695  162.1349 O.2     1  UNL1       -0.2724
     13 C         140.2251  142.5569  162.7625 C.ar    1  UNL1        0.1453
     14 C         138.9962  141.7018  162.6703 C.ar    1  UNL1        0.0922
     15 C         137.7082  142.1716  163.2789 C.ar    1  UNL1        0.2259
     16 O         136.4793  141.3165  163.1868 O.3     1  UNL1       -0.4919
     17 N         137.6491  143.4966  163.9797 N.ar    1  UNL1       -0.1894
     18 C         138.8780  144.3517  164.0719 C.ar    1  UNL1        0.2027
     19 N         140.1660  143.8819  163.4633 N.ar    1  UNL1       -0.2084
     20 H         136.5162  140.4888  162.7490 H       1  UNL1        0.2938
     21 C         145.7779  141.7113  156.8074 C.ar    1  UNL1        0.0073
     22 C         145.9184  142.8251  157.8023 C.ar    1  UNL1        0.0018
     23 C         145.0954  142.8189  159.0563 C.ar    1  UNL1        0.0154
     24 C         144.1319  141.6990  159.3155 C.ar    1  UNL1        0.0622
     25 C         143.9913  140.5852  158.3207 C.ar    1  UNL1        0.0154
     26 C         144.8143  140.5914  157.0667 C.ar    1  UNL1        0.0018
     27 C         149.8964  141.7858  153.5040 C.3     1  UNL1        0.0594
     28 C         148.4940  141.7517  154.0349 C.ar    1  UNL1        0.0882
     29 N         147.2407  141.7021  153.2122 N.ar    1  UNL1       -0.2470
     30 C         146.0707  141.6809  154.1506 C.ar    1  UNL1        0.0655
     31 C         144.6244  141.6319  153.7557 C.3     1  UNL1        0.0526
     32 C         146.6009  141.7174  155.5534 C.ar    1  UNL1        0.0441
     33 S         148.0985  141.7611  155.4819 S.2     1  UNL1       -0.0711
     34 C         142.4407  139.8403  167.1064 C.3     1  UNL1        0.1183
     35 C         141.5733  140.5422  168.1087 C.ar    1  UNL1        0.0712
     36 N         140.2398  139.9652  168.4812 N.ar    1  UNL1       -0.2471
     37 C         139.3724  140.6672  169.4836 C.ar    1  UNL1        0.0985
     38 C         139.8385  141.9462  170.1136 C.ar    1  UNL1        0.0203
     39 C         141.1720  142.5233  169.7411 C.ar    1  UNL1       -0.0015
     40 C         142.0394  141.8213  168.7387 C.ar    1  UNL1       -0.0069
     41 C         143.3730  142.3984  168.3663 C.3     1  UNL1        0.0323
@<TRIPOS>BOND
     1    27    28    1
     2    28    29   ar
     3    29    30   ar
     4    30    31    1
     5    30    32   ar
     6    32    21    1
     7    21    22   ar
     8    22    23   ar
     9    23    24   ar
    10    24     1    1
    11     1     2   am
    12     2     3    2
    13     2     4   am
    14     4    13    1
    15    13    14   ar
    16    14    15   ar
    17    15    16    1
    18    15    17   ar
    19    17    18   ar
    20    18    19   ar
    21     4     5    1
    22     5     6    1
    23     6     7    1
    24     7     8    1
    25     8    34    1
    26    34    35    1
    27    35    36   ar
    28    36    37   ar
    29    37    38   ar
    30    38    39   ar
    31    39    40   ar
    32    40    41    1
    33     8     9    1
    34     9    10    1
    35     5    11    1
    36    11    12    2
    37    24    25   ar
    38    25    26   ar
    39    32    33   ar
    40    33    28   ar
    41    26    21   ar
    42    11     1   am
    43    19    13   ar
    44    10     5    1
    45    40    35   ar
    46    16    20    1
@<TRIPOS>MOLECULE
*****
 41 46 0 0 0
SMALL
GASTEIGER

@<TRIPOS>ATOM
      1 N         143.8353  141.6334  159.1432 N.am    1  UNL1       -0.1907
      2 C         142.7698  142.6411  159.4587 C.2     1  UNL1        0.3219
      3 O         142.6132  143.9884  158.8183 O.2     1  UNL1       -0.2512
      4 N         141.8886  142.0649  160.5270 N.am    1  UNL1       -0.2222
      5 C         142.4093  140.7010  160.8718 C.3     1  UNL1        0.1391
      6 C         143.0418  139.3617  161.1090 C.3     1  UNL1        0.0449
      7 C         142.4613  138.4284  162.1298 C.3     1  UNL1        0.0746
      8 N         141.2484  138.8344  162.9134 N.3     1  UNL1       -0.2676
      9 C         140.6159  140.1737  162.6762 C.3     1  UNL1        0.0746
     10 C         141.1964  141.1070  161.6554 C.3     1  UNL1        0.0449
     11 C         143.6125  140.4344  160.0166 C.2     1  UNL1        0.2529
     12 O         144.4464  139.1876  160.0320 O.2     1  UNL1       -0.2724
     13 C         140.6959  142.7347  161.1425 C.ar    1  UNL1        0.1453
     14 C         140.8848  143.7571  162.2237 C.ar    1  UNL1        0.0922
     15 C         139.6921  144.4269  162.8391 C.ar    1  UNL1        0.2259
     16 O         139.8809  145.4493  163.9203 O.3     1  UNL1       -0.4919
     17 N         138.3104  144.0744  162.3734 N.ar    1  UNL1       -0.1894
     18 C         138.1216  143.0520  161.2921 C.ar    1  UNL1        0.2027
     19 N         139.3143  142.3822  160.6767 N.ar    1  UNL1       -0.2084
     20 H         140.7440  145.6695  164.2113 H       1  UNL1        0.2938
     21 C         147.1228  142.1218  156.1095 C.ar    1  UNL1        0.0073
     22 C         146.0031  141.1571  155.8534 C.ar    1  UNL1        0.0018
     23 C         144.9073  140.9943  156.8646 C.ar    1  UNL1        0.0154
     24 C         144.9312  141.7962  158.1320 C.ar    1  UNL1        0.0622
     25 C         146.0508  142.7609  158.3882 C.ar    1  UNL1        0.0154
     26 C         147.1466  142.9236  157.3769 C.ar    1  UNL1        0.0018
     27 C         151.7487  141.6794  153.6023 C.3     1  UNL1        0.0594
     28 C         150.3450  142.0812  153.9458 C.ar    1  UNL1        0.0882
     29 N         149.4651  142.9889  153.1384 N.ar    1  UNL1       -0.2470
     30 C         148.1510  143.1146  153.8507 C.ar    1  UNL1        0.0655
     31 C         146.9755  143.9276  153.3953 C.3     1  UNL1        0.0526
     32 C         148.2187  142.2846  155.0983 C.ar    1  UNL1        0.0441
     33 S         149.5746  141.6459  155.1571 S.2     1  UNL1       -0.0711
     34 C         140.6679  137.9011  163.9342 C.3     1  UNL1        0.1183
     35 C         140.0166  138.4508  165.1685 C.ar    1  UNL1        0.0712
     36 N         138.5449  138.2611  165.3879 N.ar    1  UNL1       -0.2471
     37 C         137.8937  138.8108  166.6223 C.ar    1  UNL1        0.0985
     38 C         138.7141  139.5502  167.6373 C.ar    1  UNL1        0.0203
     39 C         140.1858  139.7398  167.4179 C.ar    1  UNL1       -0.0015
     40 C         140.8371  139.1902  166.1836 C.ar    1  UNL1       -0.0069
     41 C         142.3088  139.3799  165.9642 C.3     1  UNL1        0.0323
@<TRIPOS>BOND
     1    27    28    1
     2    28    29   ar
     3    29    30   ar
     4    30    31    1
     5    30    32   ar
     6    32    21    1
     7    21    22   ar
     8    22    23   ar
     9    23    24   ar
    10    24     1    1
    11     1     2   am
    12     2     3    2
    13     2     4   am
    14     4    13    1
    15    13    14   ar
    16    14    15   ar
    17    15    16    1
    18    15    17   ar
    19    17    18   ar
    20    18    19   ar
    21     4     5    1
    22     5     6    1
    23     6     7    1
    24     7     8    1
    25     8    34    1
    26    34    35    1
    27    35    36   ar
    28    36    37   ar
    29    37    38   ar
    30    38    39   ar
    31    39    40   ar
    32    40    41    1
    33     8     9    1
    34     9    10    1
    35     5    11    1
    36    11    12    2
    37    24    25   ar
    38    25    26   ar
    39    32    33   ar
    40    33    28   ar
    41    26    21   ar
    42    11     1   am
    43    19    13   ar
    44    10     5    1
    45    40    35   ar
    46    16    20    1
@<TRIPOS>MOLECULE
*****
 41 46 0 0 0
SMALL
GASTEIGER

@<TRIPOS>ATOM
      1 N         143.9200  141.6569  159.3627 N.am    1  UNL1       -0.1907
      2 C         143.0272  142.7822  159.7948 C.2     1  UNL1        0.3219
      3 O         142.9075  144.1194  159.1259 O.2     1  UNL1       -0.2512
      4 N         142.2750  142.3354  161.0133 N.am    1  UNL1       -0.2222
      5 C         142.7029  140.9340  161.3343 C.3     1  UNL1        0.1391
      6 C         143.2258  139.5419  161.5305 C.3     1  UNL1        0.0449
      7 C         142.7250  138.7065  162.6713 C.3     1  UNL1        0.0746
      8 N         141.7014  139.2634  163.6158 N.3     1  UNL1       -0.2676
      9 C         141.1786  140.6555  163.4197 C.3     1  UNL1        0.0746
     10 C         141.6794  141.4908  162.2789 C.3     1  UNL1        0.0449
     11 C         143.7196  140.5147  160.3142 C.2     1  UNL1        0.2529
     12 O         144.4140  139.1864  160.2558 O.2     1  UNL1       -0.2724
     13 C         141.2712  143.1474  161.7767 C.ar    1  UNL1        0.1453
     14 C         139.8095  143.0190  161.4651 C.ar    1  UNL1        0.0922
     15 C         138.8057  143.8311  162.2286 C.ar    1  UNL1        0.2259
     16 O         137.3441  143.7027  161.9170 O.3     1  UNL1       -0.4919
     17 N         139.2635  144.7715  163.3038 N.ar    1  UNL1       -0.1894
     18 C         140.7251  144.8999  163.6155 C.ar    1  UNL1        0.2027
     19 N         141.7289  144.0879  162.8520 N.ar    1  UNL1       -0.2084
     20 H         137.0581  143.1152  161.2453 H       1  UNL1        0.2938
     21 C         146.7097  141.7002  155.8321 C.ar    1  UNL1        0.0073
     22 C         146.8845  142.6980  156.9383 C.ar    1  UNL1        0.0018
     23 C         145.9546  142.6836  158.1152 C.ar    1  UNL1        0.0154
     24 C         144.8499  141.6713  158.1858 C.ar    1  UNL1        0.0622
     25 C         144.6752  140.6735  157.0797 C.ar    1  UNL1        0.0154
     26 C         145.6051  140.6879  155.9028 C.ar    1  UNL1        0.0018
     27 C         151.1025  141.6840  152.9023 C.3     1  UNL1        0.0594
     28 C         149.6588  141.7071  153.3085 C.ar    1  UNL1        0.0882
     29 N         148.4824  141.7664  152.3798 N.ar    1  UNL1       -0.2470
     30 C         147.2345  141.7710  153.2120 C.ar    1  UNL1        0.0655
     31 C         145.8283  141.8228  152.6924 C.3     1  UNL1        0.0526
     32 C         147.6396  141.7146  154.6552 C.ar    1  UNL1        0.0441
     33 S         149.1379  141.6751  154.7148 S.2     1  UNL1       -0.0711
     34 C         141.2006  138.4279  164.7567 C.3     1  UNL1        0.1183
     35 C         141.0344  139.0382  166.1168 C.ar    1  UNL1        0.0712
     36 N         142.2342  139.2695  166.9868 N.ar    1  UNL1       -0.2471
     37 C         142.0679  139.8798  168.3469 C.ar    1  UNL1        0.0985
     38 C         140.7019  140.2588  168.8370 C.ar    1  UNL1        0.0203
     39 C         139.5021  140.0276  167.9670 C.ar    1  UNL1       -0.0015
     40 C         139.6683  139.4173  166.6069 C.ar    1  UNL1       -0.0069
     41 C         138.4685  139.1860  165.7369 C.3     1  UNL1        0.0323
@<TRIPOS>BOND
     1    27    28    1
     2    28    29   ar
     3    29    30   ar
     4    30    31    1
     5    30    32   ar
     6    32    21    1
     7    21    22   ar
     8    22    23   ar
     9    23    24   ar
    10    24     1    1
    11     1     2   am
    12     2     3    2
    13     2     4   am
    14     4    13    1
    15    13    14   ar
    16    14    15   ar
    17    15    16    1
    18    15    17   ar
    19    17    18   ar
    20    18    19   ar
    21     4     5    1
    22     5     6    1
    23     6     7    1
    24     7     8    1
    25     8    34    1
    26    34    35    1
    27    35    36   ar
    28    36    37   ar
    29    37    38   ar
    30    38    39   ar
    31    39    40   ar
    32    40    41    1
    33     8     9    1
    34     9    10    1
    35     5    11    1
    36    11    12    2
    37    24    25   ar
    38    25    26   ar
    39    32    33   ar
    40    33    28   ar
    41    26    21   ar
    42    11     1   am
    43    19    13   ar
    44    10     5    1
    45    40    35   ar
    46    16    20    1
@<TRIPOS>MOLECULE
*****
 41 46 0 0 0
SMALL
GASTEIGER

@<TRIPOS>ATOM
      1 N         139.0685  142.0719  160.7790 N.am    1  UNL1       -0.1907
      2 C         138.4133  141.2197  159.7327 C.2     1  UNL1        0.3219
      3 O         137.7617  139.8881  159.9614 O.2     1  UNL1       -0.2512
      4 N         138.5242  141.9328  158.4178 N.am    1  UNL1       -0.2222
      5 C         139.2479  143.2259  158.6512 C.3     1  UNL1        0.1391
      6 C         139.9800  144.4772  159.0359 C.3     1  UNL1        0.0449
      7 C         140.3094  145.5040  157.9932 C.3     1  UNL1        0.0746
      8 N         139.9067  145.2793  156.5658 N.3     1  UNL1       -0.2676
      9 C         139.1746  144.0279  156.1812 C.3     1  UNL1        0.0746
     10 C         138.8452  143.0012  157.2239 C.3     1  UNL1        0.0449
     11 C         139.5843  143.3118  160.1105 C.2     1  UNL1        0.2529
     12 O         140.3093  144.4396  160.7833 O.2     1  UNL1       -0.2724
     13 C         138.0029  141.4397  157.1006 C.ar    1  UNL1        0.1453
     14 C         136.6046  141.7757  156.6740 C.ar    1  UNL1        0.0922
     15 C         136.0834  141.2825  155.3568 C.ar    1  UNL1        0.2259
     16 O         134.6852  141.6186  154.9302 O.3     1  UNL1       -0.4919
     17 N         136.9604  140.4532  154.4661 N.ar    1  UNL1       -0.1894
     18 C         138.3586  140.1172  154.8927 C.ar    1  UNL1        0.2027
     19 N         138.8798  140.6104  156.2099 N.ar    1  UNL1       -0.2084
     20 H         134.1373  142.1366  155.4866 H       1  UNL1        0.2938
     21 C         139.4244  141.0826  165.1544 C.ar    1  UNL1        0.0073
     22 C         140.6240  140.9726  164.2606 C.ar    1  UNL1        0.0018
     23 C         140.5054  141.3024  162.8021 C.ar    1  UNL1        0.0154
     24 C         139.1871  141.7421  162.2374 C.ar    1  UNL1        0.0622
     25 C         137.9876  141.8521  163.1312 C.ar    1  UNL1        0.0154
     26 C         138.1062  141.5224  164.5897 C.ar    1  UNL1        0.0018
     27 C         140.8497  141.2298  170.2365 C.3     1  UNL1        0.0594
     28 C         140.1981  140.8205  168.9489 C.ar    1  UNL1        0.0882
     29 N         139.2528  139.6703  168.7657 N.ar    1  UNL1       -0.2470
     30 C         138.8479  139.6285  167.3220 C.ar    1  UNL1        0.0655
     31 C         137.9122  138.6365  166.6971 C.3     1  UNL1        0.0526
     32 C         139.5430  140.7529  166.6129 C.ar    1  UNL1        0.0441
     33 S         140.3774  141.4895  167.6183 S.2     1  UNL1       -0.0711
     34 C         140.2361  146.3061  155.5231 C.3     1  UNL1        0.1183
     35 C         139.6390  147.6795  155.6079 C.ar    1  UNL1        0.0712
     36 N         138.8618  148.0856  156.8249 N.ar    1  UNL1       -0.2471
     37 C         138.2647  149.4590  156.9097 C.ar    1  UNL1        0.0985
     38 C         138.4448  150.4263  155.7776 C.ar    1  UNL1        0.0203
     39 C         139.2221  150.0203  154.5606 C.ar    1  UNL1       -0.0015
     40 C         139.8192  148.6469  154.4758 C.ar    1  UNL1       -0.0069
     41 C         140.5964  148.2408  153.2588 C.3     1  UNL1        0.0323
@<TRIPOS>BOND
     1    27    28    1
     2    28    29   ar
     3    29    30   ar
     4    30    31    1
     5    30    32   ar
     6    32    21    1
     7    21    22   ar
     8    22    23   ar
     9    23    24   ar
    10    24     1    1
    11     1     2   am
    12     2     3    2
    13     2     4   am
    14     4    13    1
    15    13    14   ar
    16    14    15   ar
    17    15    16    1
    18    15    17   ar
    19    17    18   ar
    20    18    19   ar
    21     4     5    1
    22     5     6    1
    23     6     7    1
    24     7     8    1
    25     8    34    1
    26    34    35    1
    27    35    36   ar
    28    36    37   ar
    29    37    38   ar
    30    38    39   ar
    31    39    40   ar
    32    40    41    1
    33     8     9    1
    34     9    10    1
    35     5    11    1
    36    11    12    2
    37    24    25   ar
    38    25    26   ar
    39    32    33   ar
    40    33    28   ar
    41    26    21   ar
    42    11     1   am
    43    19    13   ar
    44    10     5    1
    45    40    35   ar
    46    16    20    1
@<TRIPOS>MOLECULE
*****
 41 46 0 0 0
SMALL
GASTEIGER

@<TRIPOS>ATOM
      1 N         139.5041  142.8747  157.0577 N.am    1  UNL1       -0.1907
      2 C         139.9824  141.6773  156.2910 C.2     1  UNL1        0.3219
      3 O         140.4993  141.6808  154.8830 O.2     1  UNL1       -0.2512
      4 N         139.8529  140.4759  157.1797 N.am    1  UNL1       -0.2222
      5 C         139.2947  140.9306  158.4957 C.3     1  UNL1        0.1391
      6 C         138.7348  141.5304  159.7513 C.3     1  UNL1        0.0449
      7 C         138.4433  140.6561  160.9348 C.3     1  UNL1        0.0746
      8 N         138.7117  139.1821  160.8626 N.3     1  UNL1       -0.2676
      9 C         139.2716  138.5823  159.6069 C.3     1  UNL1        0.0746
     10 C         139.5631  139.4566  158.4235 C.3     1  UNL1        0.0449
     11 C         139.0791  142.4132  158.4202 C.2     1  UNL1        0.2529
     12 O         138.5342  143.2817  159.5151 O.2     1  UNL1       -0.2724
     13 C         140.2176  139.0670  156.8163 C.ar    1  UNL1        0.1453
     14 C         141.6105  138.5663  157.0595 C.ar    1  UNL1        0.0922
     15 C         141.9752  137.1575  156.6961 C.ar    1  UNL1        0.2259
     16 O         143.3681  136.6568  156.9392 O.3     1  UNL1       -0.4919
     17 N         140.9469  136.2492  156.0896 N.ar    1  UNL1       -0.1894
     18 C         139.5540  136.7499  155.8464 C.ar    1  UNL1        0.2027
     19 N         139.1894  138.1587  156.2098 N.ar    1  UNL1       -0.2084
     20 H         144.0104  137.2241  157.3181 H       1  UNL1        0.2938
     21 C         139.3683  147.1078  155.5371 C.ar    1  UNL1        0.0073
     22 C         138.3150  146.1258  155.1171 C.ar    1  UNL1        0.0018
     23 C         138.3603  144.7148  155.6240 C.ar    1  UNL1        0.0154
     24 C         139.4589  144.2857  156.5508 C.ar    1  UNL1        0.0622
     25 C         140.5121  145.2676  156.9708 C.ar    1  UNL1        0.0154
     26 C         140.4668  146.6786  156.4639 C.ar    1  UNL1        0.0018
     27 C         138.3764  152.2806  155.1648 C.3     1  UNL1        0.0594
     28 C         138.8671  150.8965  154.8591 C.ar    1  UNL1        0.0882
     29 N         139.6397  150.4839  153.6414 N.ar    1  UNL1       -0.2470
     30 C         139.9216  149.0144  153.7472 C.ar    1  UNL1        0.0655
     31 C         140.6704  148.1860  152.7457 C.3     1  UNL1        0.0526
     32 C         139.3231  148.5188  155.0303 C.ar    1  UNL1        0.0441
     33 S         138.6714  149.6820  155.7175 S.2     1  UNL1       -0.0711
     34 C         138.4202  138.3078  162.0462 C.3     1  UNL1        0.1183
     35 C         138.9165  138.6977  163.4069 C.ar    1  UNL1        0.0712
     36 N         138.0686  139.5579  164.2964 N.ar    1  UNL1       -0.2471
     37 C         138.5650  139.9478  165.6572 C.ar    1  UNL1        0.0985
     38 C         139.9091  139.4774  166.1285 C.ar    1  UNL1        0.0203
     39 C         140.7569  138.6172  165.2390 C.ar    1  UNL1       -0.0015
     40 C         140.2606  138.2273  163.8782 C.ar    1  UNL1       -0.0069
     41 C         141.1084  137.3671  162.9887 C.3     1  UNL1        0.0323
@<TRIPOS>BOND
     1    27    28    1
     2    28    29   ar
     3    29    30   ar
     4    30    31    1
     5    30    32   ar
     6    32    21    1
     7    21    22   ar
     8    22    23   ar
     9    23    24   ar
    10    24     1    1
    11     1     2   am
    12     2     3    2
    13     2     4   am
    14     4    13    1
    15    13    14   ar
    16    14    15   ar
    17    15    16    1
    18    15    17   ar
    19    17    18   ar
    20    18    19   ar
    21     4     5    1
    22     5     6    1
    23     6     7    1
    24     7     8    1
    25     8    34    1
    26    34    35    1
    27    35    36   ar
    28    36    37   ar
    29    37    38   ar
    30    38    39   ar
    31    39    40   ar
    32    40    41    1
    33     8     9    1
    34     9    10    1
    35     5    11    1
    36    11    12    2
    37    24    25   ar
    38    25    26   ar
    39    32    33   ar
    40    33    28   ar
    41    26    21   ar
    42    11     1   am
    43    19    13   ar
    44    10     5    1
    45    40    35   ar
    46    16    20    1
@<TRIPOS>MOLECULE
*****
 41 46 0 0 0
SMALL
GASTEIGER

@<TRIPOS>ATOM
      1 N         141.1008  139.3470  160.6911 N.am    1  UNL1       -0.1907
      2 C         140.7276  140.7856  160.8948 C.2     1  UNL1        0.3219
      3 O         140.3626  141.7629  159.8172 O.2     1  UNL1       -0.2512
      4 N         140.7837  141.0751  162.3655 N.am    1  UNL1       -0.2222
      5 C         141.1915  139.8156  163.0708 C.3     1  UNL1        0.1391
      6 C         141.6047  138.4884  163.6345 C.3     1  UNL1        0.0449
      7 C         141.7848  138.3255  165.1146 C.3     1  UNL1        0.0746
      8 N         141.5518  139.4898  166.0312 N.3     1  UNL1       -0.2676
      9 C         141.1386  140.8170  165.4675 C.3     1  UNL1        0.0746
     10 C         140.9585  140.9799  163.9874 C.3     1  UNL1        0.0449
     11 C         141.3874  138.7475  162.0359 C.2     1  UNL1        0.2529
     12 O         141.7979  137.3291  162.2996 O.2     1  UNL1       -0.2724
     13 C         140.4846  142.3928  163.0168 C.ar    1  UNL1        0.1453
     14 C         139.1084  142.6741  163.5432 C.ar    1  UNL1        0.0922
     15 C         138.8094  143.9918  164.1944 C.ar    1  UNL1        0.2259
     16 O         137.4333  144.2731  164.7208 O.3     1  UNL1       -0.4919
     17 N         139.8864  145.0284  164.3192 N.ar    1  UNL1       -0.1894
     18 C         141.2626  144.7472  163.7928 C.ar    1  UNL1        0.2027
     19 N         141.5616  143.4294  163.1416 N.ar    1  UNL1       -0.2084
     20 H         136.7604  143.6256  164.6428 H       1  UNL1        0.2938
     21 C         141.3213  137.2059  156.7393 C.ar    1  UNL1        0.0073
     22 C         142.5628  137.3964  157.5594 C.ar    1  UNL1        0.0018
     23 C         142.4892  138.1101  158.8767 C.ar    1  UNL1        0.0154
     24 C         141.1743  138.6333  159.3738 C.ar    1  UNL1        0.0622
     25 C         139.9329  138.4428  158.5538 C.ar    1  UNL1        0.0154
     26 C         140.0065  137.7290  157.2365 C.ar    1  UNL1        0.0018
     27 C         140.0272  135.2489  152.0090 C.3     1  UNL1        0.0594
     28 C         140.8000  135.5926  153.2478 C.ar    1  UNL1        0.0882
     29 N         142.2161  135.1950  153.5422 N.ar    1  UNL1       -0.2470
     30 C         142.5837  135.7509  154.8860 C.ar    1  UNL1        0.0655
     31 C         143.9078  135.5934  155.5731 C.3     1  UNL1        0.0526
     32 C         141.3949  136.4921  155.4221 C.ar    1  UNL1        0.0441
     33 S         140.2925  136.3943  154.4096 S.2     1  UNL1       -0.0711
     34 C         141.7320  139.3268  167.5114 C.3     1  UNL1        0.1183
     35 C         141.7663  140.5346  168.4002 C.ar    1  UNL1        0.0712
     36 N         143.0451  141.2979  168.5794 N.ar    1  UNL1       -0.2471
     37 C         143.0793  142.5058  169.4683 C.ar    1  UNL1        0.0985
     38 C         141.8348  142.9503  170.1779 C.ar    1  UNL1        0.0203
     39 C         140.5560  142.1869  169.9987 C.ar    1  UNL1       -0.0015
     40 C         140.5217  140.9792  169.1099 C.ar    1  UNL1       -0.0069
     41 C         139.2430  140.2159  168.9307 C.3     1  UNL1        0.0323
@<TRIPOS>BOND
     1    27    28    1
     2    28    29   ar
     3    29    30   ar
     4    30    31    1
     5    30    32   ar
     6    32    21    1
     7    21    22   ar
     8    22    23   ar
     9    23    24   ar
    10    24     1    1
    11     1     2   am
    12     2     3    2
    13     2     4   am
    14     4    13    1
    15    13    14   ar
    16    14    15   ar
    17    15    16    1
    18    15    17   ar
    19    17    18   ar
    20    18    19   ar
    21     4     5    1
    22     5     6    1
    23     6     7    1
    24     7     8    1
    25     8    34    1
    26    34    35    1
    27    35    36   ar
    28    36    37   ar
    29    37    38   ar
    30    38    39   ar
    31    39    40   ar
    32    40    41    1
    33     8     9    1
    34     9    10    1
    35     5    11    1
    36    11    12    2
    37    24    25   ar
    38    25    26   ar
    39    32    33   ar
    40    33    28   ar
    41    26    21   ar
    42    11     1   am
    43    19    13   ar
    44    10     5    1
    45    40    35   ar
    46    16    20    1
