@<TRIPOS>MOLECULE
*****
 27 29 0 0 0
SMALL
GASTEIGER

@<TRIPOS>ATOM
      1 C         141.3373  138.7466  158.1394 C.3     1  UNL1        0.0224
      2 C         140.2145  139.4889  157.4774 C.3     1  UNL1        0.0191
      3 C         139.0096  139.8925  158.2744 C.3     1  UNL1        0.0724
      4 N         138.9275  139.5539  159.7334 N.3     1  UNL1       -0.2689
      5 C         140.0503  138.8115  160.3953 C.3     1  UNL1        0.0724
      6 C         141.2552  138.4079  159.5983 C.3     1  UNL1        0.0191
      7 C         142.5423  138.3429  157.3424 C.3     1  UNL1        0.0897
      8 O         140.9904  136.2749  155.8210 O.2     1  UNL1       -0.2701
      9 C         142.2212  135.8795  156.5818 C.2     1  UNL1        0.2459
     10 N         142.9972  136.9136  157.3425 N.am    1  UNL1       -0.3009
     11 H         143.8050  136.6541  157.8418 H       1  UNL1        0.1497
     12 C         142.6761  134.4502  156.5818 C.ar    1  UNL1        0.0550
     13 C         141.9084  133.4188  155.8093 C.ar    1  UNL1        0.0160
     14 C         142.3633  131.9894  155.8094 C.ar    1  UNL1        0.0587
     15 CL        141.5956  130.9580  155.0368 Cl      1  UNL1       -0.0822
     16 C         143.5859  131.5914  156.5820 C.ar    1  UNL1        0.0228
     17 C         144.3536  132.6229  157.3545 C.ar    1  UNL1        0.0587
     18 CL        145.5761  132.2250  158.1272 Cl      1  UNL1       -0.0822
     19 C         143.8986  134.0523  157.3544 C.ar    1  UNL1        0.0160
     20 C         137.7225  139.9575  160.5304 C.3     1  UNL1        0.1007
     21 C         137.8290  141.0553  161.5469 C.ar    1  UNL1        0.0131
     22 C         137.6597  140.7464  163.0050 C.ar    1  UNL1        0.0007
     23 C         137.7662  141.8443  164.0215 C.ar    1  UNL1        0.0257
     24 C         138.0420  143.2510  163.5801 C.ar    1  UNL1        0.1154
     25 BR        138.1484  144.3488  164.5966 Br      1  UNL1       -0.0280
     26 N         138.2113  143.5600  162.1220 N.ar    1  UNL1       -0.2374
     27 C         138.1048  142.4622  161.1055 C.ar    1  UNL1        0.0965
@<TRIPOS>BOND
     1     8     9    2
     2     9    10   am
     3    10     7    1
     4     7     1    1
     5     1     2    1
     6     2     3    1
     7     3     4    1
     8     4    20    1
     9    20    21    1
    10    21    22   ar
    11    22    23   ar
    12    23    24   ar
    13    24    25    1
    14    24    26   ar
    15    26    27   ar
    16     4     5    1
    17     5     6    1
    18     9    12    1
    19    12    13   ar
    20    13    14   ar
    21    14    15    1
    22    14    16   ar
    23    16    17   ar
    24    17    18    1
    25    17    19   ar
    26     6     1    1
    27    19    12   ar
    28    27    21   ar
    29    10    11    1
@<TRIPOS>MOLECULE
*****
 27 29 0 0 0
SMALL
GASTEIGER

@<TRIPOS>ATOM
      1 C         141.4643  138.3645  159.5990 C.3     1  UNL1        0.0224
      2 C         141.8731  137.9236  160.9732 C.3     1  UNL1        0.0191
      3 C         140.8941  137.9986  162.1071 C.3     1  UNL1        0.0724
      4 N         139.5063  138.5146  161.8669 N.3     1  UNL1       -0.2689
      5 C         139.0975  138.9555  160.4927 C.3     1  UNL1        0.0724
      6 C         140.0765  138.8805  159.3588 C.3     1  UNL1        0.0191
      7 C         142.4434  138.2895  158.4650 C.3     1  UNL1        0.0897
      8 O         141.0931  136.6430  156.3518 O.2     1  UNL1       -0.2701
      9 C         142.3479  136.1431  157.0043 C.2     1  UNL1        0.2459
     10 N         143.0230  136.9664  158.0609 N.am    1  UNL1       -0.3009
     11 H         143.8466  136.6384  158.4891 H       1  UNL1        0.1497
     12 C         142.9275  134.8200  156.6001 C.ar    1  UNL1        0.0550
     13 C         143.8661  134.0994  157.5219 C.ar    1  UNL1        0.0160
     14 C         144.4458  132.7763  157.1178 C.ar    1  UNL1        0.0587
     15 CL        145.3844  132.0557  158.0395 Cl      1  UNL1       -0.0822
     16 C         144.0868  132.1737  155.7918 C.ar    1  UNL1        0.0228
     17 C         143.1481  132.8943  154.8700 C.ar    1  UNL1        0.0587
     18 CL        142.7891  132.2919  153.5441 Cl      1  UNL1       -0.0822
     19 C         142.5685  134.2175  155.2742 C.ar    1  UNL1        0.0160
     20 C         138.5272  138.5896  163.0009 C.3     1  UNL1        0.1007
     21 C         138.9209  139.2493  164.2892 C.ar    1  UNL1        0.0131
     22 C         138.5244  138.6342  165.5986 C.ar    1  UNL1        0.0007
     23 C         138.9182  139.2939  166.8870 C.ar    1  UNL1        0.0257
     24 C         139.7083  140.5687  166.8659 C.ar    1  UNL1        0.1154
     25 BR        140.1020  141.2284  168.1542 Br      1  UNL1       -0.0280
     26 N         140.1048  141.1838  165.5566 N.ar    1  UNL1       -0.2374
     27 C         139.7111  140.5242  164.2682 C.ar    1  UNL1        0.0965
@<TRIPOS>BOND
     1     8     9    2
     2     9    10   am
     3    10     7    1
     4     7     1    1
     5     1     2    1
     6     2     3    1
     7     3     4    1
     8     4    20    1
     9    20    21    1
    10    21    22   ar
    11    22    23   ar
    12    23    24   ar
    13    24    25    1
    14    24    26   ar
    15    26    27   ar
    16     4     5    1
    17     5     6    1
    18     9    12    1
    19    12    13   ar
    20    13    14   ar
    21    14    15    1
    22    14    16   ar
    23    16    17   ar
    24    17    18    1
    25    17    19   ar
    26     6     1    1
    27    19    12   ar
    28    27    21   ar
    29    10    11    1
@<TRIPOS>MOLECULE
*****
 27 29 0 0 0
SMALL
GASTEIGER

@<TRIPOS>ATOM
      1 C         142.9965  138.7236  158.8185 C.3     1  UNL1        0.0224
      2 C         143.4657  140.0965  159.1992 C.3     1  UNL1        0.0191
      3 C         143.9066  140.3753  160.6055 C.3     1  UNL1        0.0724
      4 N         143.8783  139.2812  161.6312 N.3     1  UNL1       -0.2689
      5 C         143.4091  137.9083  161.2506 C.3     1  UNL1        0.0724
      6 C         142.9682  137.6295  159.8443 C.3     1  UNL1        0.0191
      7 C         142.5556  138.4448  157.4121 C.3     1  UNL1        0.0897
      8 O         144.7270  137.2794  155.7013 O.2     1  UNL1       -0.2701
      9 C         143.5351  136.4470  156.0706 C.2     1  UNL1        0.2459
     10 N         142.4493  137.0297  156.9261 N.am    1  UNL1       -0.3009
     11 H         141.6670  136.4834  157.1685 H       1  UNL1        0.1497
     12 C         143.4288  135.0319  155.5846 C.ar    1  UNL1        0.0550
     13 C         144.1245  133.9297  156.3269 C.ar    1  UNL1        0.0160
     14 C         144.0182  132.5146  155.8408 C.ar    1  UNL1        0.0587
     15 CL        144.7139  131.4124  156.5832 Cl      1  UNL1       -0.0822
     16 C         143.2163  132.2018  154.6124 C.ar    1  UNL1        0.0228
     17 C         142.5206  133.3040  153.8701 C.ar    1  UNL1        0.0587
     18 CL        141.7186  132.9912  152.6417 Cl      1  UNL1       -0.0822
     19 C         142.6269  134.7192  154.3562 C.ar    1  UNL1        0.0160
     20 C         144.3192  139.5600  163.0376 C.3     1  UNL1        0.1007
     21 C         143.3000  139.7033  164.1287 C.ar    1  UNL1        0.0131
     22 C         143.4408  138.9121  165.3953 C.ar    1  UNL1        0.0007
     23 C         142.4215  139.0555  166.4864 C.ar    1  UNL1        0.0257
     24 C         141.2614  139.9900  166.3109 C.ar    1  UNL1        0.1154
     25 BR        140.2421  140.1332  167.4020 Br      1  UNL1       -0.0280
     26 N         141.1205  140.7812  165.0443 N.ar    1  UNL1       -0.2374
     27 C         142.1398  140.6379  163.9533 C.ar    1  UNL1        0.0965
@<TRIPOS>BOND
     1     8     9    2
     2     9    10   am
     3    10     7    1
     4     7     1    1
     5     1     2    1
     6     2     3    1
     7     3     4    1
     8     4    20    1
     9    20    21    1
    10    21    22   ar
    11    22    23   ar
    12    23    24   ar
    13    24    25    1
    14    24    26   ar
    15    26    27   ar
    16     4     5    1
    17     5     6    1
    18     9    12    1
    19    12    13   ar
    20    13    14   ar
    21    14    15    1
    22    14    16   ar
    23    16    17   ar
    24    17    18    1
    25    17    19   ar
    26     6     1    1
    27    19    12   ar
    28    27    21   ar
    29    10    11    1
@<TRIPOS>MOLECULE
*****
 27 29 0 0 0
SMALL
GASTEIGER

@<TRIPOS>ATOM
      1 C         144.6360  140.8531  162.8980 C.3     1  UNL1        0.0224
      2 C         144.8838  142.2707  162.4752 C.3     1  UNL1        0.0191
      3 C         144.6758  142.6742  161.0456 C.3     1  UNL1        0.0724
      4 N         144.2199  141.6601  160.0388 N.3     1  UNL1       -0.2689
      5 C         143.9721  140.2424  160.4616 C.3     1  UNL1        0.0724
      6 C         144.1801  139.8389  161.8912 C.3     1  UNL1        0.0191
      7 C         144.8441  140.4495  164.3277 C.3     1  UNL1        0.0897
      8 O         143.4300  142.5264  165.9669 O.2     1  UNL1       -0.2701
      9 C         142.9622  141.1015  165.9961 C.2     1  UNL1        0.2459
     10 N         143.6693  140.0631  165.1765 N.am    1  UNL1       -0.3009
     11 H         143.3623  139.1279  165.1956 H       1  UNL1        0.1497
     12 C         141.7874  140.7150  166.8449 C.ar    1  UNL1        0.0550
     13 C         140.5383  140.1894  166.2020 C.ar    1  UNL1        0.0160
     14 C         139.3635  139.8029  167.0508 C.ar    1  UNL1        0.0587
     15 CL        138.1143  139.2772  166.4079 Cl      1  UNL1       -0.0822
     16 C         139.4378  139.9421  168.5425 C.ar    1  UNL1        0.0228
     17 C         140.6870  140.4678  169.1854 C.ar    1  UNL1        0.0587
     18 CL        140.7613  140.6070  170.6770 Cl      1  UNL1       -0.0822
     19 C         141.8618  140.8543  168.3365 C.ar    1  UNL1        0.0160
     20 C         144.0118  142.0636  158.6091 C.3     1  UNL1        0.1007
     21 C         145.1533  141.9999  157.6381 C.ar    1  UNL1        0.0131
     22 C         146.3629  142.8625  157.8448 C.ar    1  UNL1        0.0007
     23 C         147.5044  142.7987  156.8737 C.ar    1  UNL1        0.0257
     24 C         147.4363  141.8723  155.6959 C.ar    1  UNL1        0.1154
     25 BR        148.5778  141.8086  154.7249 Br      1  UNL1       -0.0280
     26 N         146.2267  141.0097  155.4892 N.ar    1  UNL1       -0.2374
     27 C         145.0852  141.0734  156.4602 C.ar    1  UNL1        0.0965
@<TRIPOS>BOND
     1     8     9    2
     2     9    10   am
     3    10     7    1
     4     7     1    1
     5     1     2    1
     6     2     3    1
     7     3     4    1
     8     4    20    1
     9    20    21    1
    10    21    22   ar
    11    22    23   ar
    12    23    24   ar
    13    24    25    1
    14    24    26   ar
    15    26    27   ar
    16     4     5    1
    17     5     6    1
    18     9    12    1
    19    12    13   ar
    20    13    14   ar
    21    14    15    1
    22    14    16   ar
    23    16    17   ar
    24    17    18    1
    25    17    19   ar
    26     6     1    1
    27    19    12   ar
    28    27    21   ar
    29    10    11    1
@<TRIPOS>MOLECULE
*****
 27 29 0 0 0
SMALL
GASTEIGER

@<TRIPOS>ATOM
      1 C         139.7965  144.4343  162.7430 C.3     1  UNL1        0.0224
      2 C         138.8689  143.3865  162.2030 C.3     1  UNL1        0.0191
      3 C         138.8011  142.0371  162.8545 C.3     1  UNL1        0.0724
      4 N         139.6609  141.7356  164.0461 N.3     1  UNL1       -0.2689
      5 C         140.5884  142.7834  164.5862 C.3     1  UNL1        0.0724
      6 C         140.6562  144.1328  163.9346 C.3     1  UNL1        0.0191
      7 C         139.8643  145.7838  162.0915 C.3     1  UNL1        0.0897
      8 O         142.1853  144.7621  160.4887 O.2     1  UNL1       -0.2701
      9 C         141.0107  145.3852  159.7944 C.2     1  UNL1        0.2459
     10 N         139.8502  145.8961  160.5958 N.am    1  UNL1       -0.3009
     11 H         139.0793  146.3051  160.1401 H       1  UNL1        0.1497
     12 C         140.9967  145.4975  158.2987 C.ar    1  UNL1        0.0550
     13 C         142.0708  144.8364  157.4868 C.ar    1  UNL1        0.0160
     14 C         142.0567  144.9486  155.9911 C.ar    1  UNL1        0.0587
     15 CL        143.1309  144.2876  155.1792 Cl      1  UNL1       -0.0822
     16 C         140.9684  145.7220  155.3072 C.ar    1  UNL1        0.0228
     17 C         139.8943  146.3831  156.1191 C.ar    1  UNL1        0.0587
     18 CL        138.8061  147.1565  155.4353 Cl      1  UNL1       -0.0822
     19 C         139.9084  146.2708  157.6149 C.ar    1  UNL1        0.0160
     20 C         139.5930  140.3861  164.6976 C.3     1  UNL1        0.1007
     21 C         140.2881  140.1489  166.0055 C.ar    1  UNL1        0.0131
     22 C         139.5553  140.3709  167.2953 C.ar    1  UNL1        0.0007
     23 C         140.2505  140.1337  168.6033 C.ar    1  UNL1        0.0257
     24 C         141.6783  139.6745  168.6213 C.ar    1  UNL1        0.1154
     25 BR        142.3734  139.4374  169.9291 Br      1  UNL1       -0.0280
     26 N         142.4111  139.4526  167.3314 N.ar    1  UNL1       -0.2374
     27 C         141.7160  139.6897  166.0235 C.ar    1  UNL1        0.0965
@<TRIPOS>BOND
     1     8     9    2
     2     9    10   am
     3    10     7    1
     4     7     1    1
     5     1     2    1
     6     2     3    1
     7     3     4    1
     8     4    20    1
     9    20    21    1
    10    21    22   ar
    11    22    23   ar
    12    23    24   ar
    13    24    25    1
    14    24    26   ar
    15    26    27   ar
    16     4     5    1
    17     5     6    1
    18     9    12    1
    19    12    13   ar
    20    13    14   ar
    21    14    15    1
    22    14    16   ar
    23    16    17   ar
    24    17    18    1
    25    17    19   ar
    26     6     1    1
    27    19    12   ar
    28    27    21   ar
    29    10    11    1
@<TRIPOS>MOLECULE
*****
 27 29 0 0 0
SMALL
GASTEIGER

@<TRIPOS>ATOM
      1 C         140.4536  137.8931  157.2125 C.3     1  UNL1        0.0224
      2 C         139.9013  137.0633  156.0917 C.3     1  UNL1        0.0191
      3 C         140.7547  136.0125  155.4455 C.3     1  UNL1        0.0724
      4 N         142.1604  135.7916  155.9201 N.3     1  UNL1       -0.2689
      5 C         142.7127  136.6215  157.0409 C.3     1  UNL1        0.0724
      6 C         141.8593  137.6722  157.6871 C.3     1  UNL1        0.0191
      7 C         139.6003  138.9440  157.8588 C.3     1  UNL1        0.0897
      8 O         137.1597  140.0189  159.2329 O.2     1  UNL1       -0.2701
      9 C         138.3582  139.6157  160.0396 C.2     1  UNL1        0.2459
     10 N         139.5785  139.0782  159.3526 N.am    1  UNL1       -0.3009
     11 H         140.3652  138.8136  159.8821 H       1  UNL1        0.1497
     12 C         138.3365  139.7499  161.5334 C.ar    1  UNL1        0.0550
     13 C         138.6729  138.5708  162.3974 C.ar    1  UNL1        0.0160
     14 C         138.6512  138.7050  163.8912 C.ar    1  UNL1        0.0587
     15 CL        138.9876  137.5259  164.7552 Cl      1  UNL1       -0.0822
     16 C         138.2930  140.0185  164.5211 C.ar    1  UNL1        0.0228
     17 C         137.9565  141.1976  163.6571 C.ar    1  UNL1        0.0587
     18 CL        137.5983  142.5110  164.2869 Cl      1  UNL1       -0.0822
     19 C         137.9783  141.0633  162.1632 C.ar    1  UNL1        0.0160
     20 C         143.0137  134.7408  155.2738 C.3     1  UNL1        0.1007
     21 C         143.2730  133.4447  155.9828 C.ar    1  UNL1        0.0131
     22 C         144.4139  133.3342  156.9504 C.ar    1  UNL1        0.0007
     23 C         144.6732  132.0380  157.6594 C.ar    1  UNL1        0.0257
     24 C         143.7916  130.8523  157.4009 C.ar    1  UNL1        0.1154
     25 BR        144.0508  129.5562  158.1100 Br      1  UNL1       -0.0280
     26 N         142.6506  130.9628  156.4334 N.ar    1  UNL1       -0.2374
     27 C         142.3914  132.2589  155.7244 C.ar    1  UNL1        0.0965
@<TRIPOS>BOND
     1     8     9    2
     2     9    10   am
     3    10     7    1
     4     7     1    1
     5     1     2    1
     6     2     3    1
     7     3     4    1
     8     4    20    1
     9    20    21    1
    10    21    22   ar
    11    22    23   ar
    12    23    24   ar
    13    24    25    1
    14    24    26   ar
    15    26    27   ar
    16     4     5    1
    17     5     6    1
    18     9    12    1
    19    12    13   ar
    20    13    14   ar
    21    14    15    1
    22    14    16   ar
    23    16    17   ar
    24    17    18    1
    25    17    19   ar
    26     6     1    1
    27    19    12   ar
    28    27    21   ar
    29    10    11    1
@<TRIPOS>MOLECULE
*****
 27 29 0 0 0
SMALL
GASTEIGER

@<TRIPOS>ATOM
      1 C         140.5436  137.9410  157.4165 C.3     1  UNL1        0.0224
      2 C         140.1071  137.0496  156.2919 C.3     1  UNL1        0.0191
      3 C         141.0969  136.1369  155.6309 C.3     1  UNL1        0.0724
      4 N         142.5233  136.1155  156.0945 N.3     1  UNL1       -0.2689
      5 C         142.9598  137.0068  157.2191 C.3     1  UNL1        0.0724
      6 C         141.9700  137.9196  157.8802 C.3     1  UNL1        0.0191
      7 C         139.5537  138.8538  158.0777 C.3     1  UNL1        0.0897
      8 O         137.1318  139.9457  159.4712 O.2     1  UNL1       -0.2701
      9 C         138.3391  139.5473  160.2672 C.2     1  UNL1        0.2459
     10 N         139.5501  139.0013  159.5703 N.am    1  UNL1       -0.3009
     11 H         140.3426  138.7398  160.0927 H       1  UNL1        0.1497
     12 C         138.3355  139.6948  161.7599 C.ar    1  UNL1        0.0550
     13 C         138.0041  141.0189  162.3819 C.ar    1  UNL1        0.0160
     14 C         138.0005  141.1664  163.8746 C.ar    1  UNL1        0.0587
     15 CL        137.6691  142.4905  164.4966 Cl      1  UNL1       -0.0822
     16 C         138.3284  139.9898  164.7453 C.ar    1  UNL1        0.0228
     17 C         138.6598  138.6657  164.1233 C.ar    1  UNL1        0.0587
     18 CL        138.9877  137.4891  164.9940 Cl      1  UNL1       -0.0822
     19 C         138.6634  138.5182  162.6305 C.ar    1  UNL1        0.0160
     20 C         143.5132  135.2027  155.4334 C.3     1  UNL1        0.1007
     21 C         143.7048  133.8063  155.9465 C.ar    1  UNL1        0.0131
     22 C         143.3549  132.6338  155.0790 C.ar    1  UNL1        0.0007
     23 C         143.5466  131.2374  155.5922 C.ar    1  UNL1        0.0257
     24 C         144.0881  131.0136  156.9730 C.ar    1  UNL1        0.1154
     25 BR        144.2798  129.6172  157.4862 Br      1  UNL1       -0.0280
     26 N         144.4381  132.1861  157.8406 N.ar    1  UNL1       -0.2374
     27 C         144.2465  133.5825  157.3274 C.ar    1  UNL1        0.0965
@<TRIPOS>BOND
     1     8     9    2
     2     9    10   am
     3    10     7    1
     4     7     1    1
     5     1     2    1
     6     2     3    1
     7     3     4    1
     8     4    20    1
     9    20    21    1
    10    21    22   ar
    11    22    23   ar
    12    23    24   ar
    13    24    25    1
    14    24    26   ar
    15    26    27   ar
    16     4     5    1
    17     5     6    1
    18     9    12    1
    19    12    13   ar
    20    13    14   ar
    21    14    15    1
    22    14    16   ar
    23    16    17   ar
    24    17    18    1
    25    17    19   ar
    26     6     1    1
    27    19    12   ar
    28    27    21   ar
    29    10    11    1
@<TRIPOS>MOLECULE
*****
 27 29 0 0 0
SMALL
GASTEIGER

@<TRIPOS>ATOM
      1 C         137.4400  141.9175  156.6761 C.3     1  UNL1        0.0224
      2 C         138.3209  143.1204  156.8398 C.3     1  UNL1        0.0191
      3 C         139.2736  143.2006  157.9957 C.3     1  UNL1        0.0724
      4 N         139.3452  142.0779  158.9878 N.3     1  UNL1       -0.2689
      5 C         138.4643  140.8750  158.8241 C.3     1  UNL1        0.0724
      6 C         137.5117  140.7948  157.6683 C.3     1  UNL1        0.0191
      7 C         136.4873  141.8372  155.5202 C.3     1  UNL1        0.0897
      8 O         135.0797  139.1931  155.6863 O.2     1  UNL1       -0.2701
      9 C         134.3050  140.4669  155.8518 C.2     1  UNL1        0.2459
     10 N         135.0089  141.7890  155.7688 N.am    1  UNL1       -0.3009
     11 H         134.5004  142.6250  155.8775 H       1  UNL1        0.1497
     12 C         132.8266  140.4186  156.1004 C.ar    1  UNL1        0.0550
     13 C         131.9085  141.3317  155.3432 C.ar    1  UNL1        0.0160
     14 C         130.4301  141.2835  155.5918 C.ar    1  UNL1        0.0587
     15 CL        129.5120  142.1966  154.8346 Cl      1  UNL1       -0.0822
     16 C         129.8696  140.3221  156.5976 C.ar    1  UNL1        0.0228
     17 C         130.7877  139.4089  157.3549 C.ar    1  UNL1        0.0587
     18 CL        130.2273  138.4476  158.3606 Cl      1  UNL1       -0.0822
     19 C         132.2662  139.4572  157.1062 C.ar    1  UNL1        0.0160
     20 C         140.2979  142.1582  160.1437 C.3     1  UNL1        0.1007
     21 C         139.8656  142.7996  161.4288 C.ar    1  UNL1        0.0131
     22 C         138.4154  143.1007  161.6660 C.ar    1  UNL1        0.0007
     23 C         137.9830  143.7422  162.9513 C.ar    1  UNL1        0.0257
     24 C         139.0009  144.0825  163.9992 C.ar    1  UNL1        0.1154
     25 BR        138.5685  144.7239  165.2843 Br      1  UNL1       -0.0280
     26 N         140.4511  143.7814  163.7619 N.ar    1  UNL1       -0.2374
     27 C         140.8834  143.1400  162.4768 C.ar    1  UNL1        0.0965
@<TRIPOS>BOND
     1     8     9    2
     2     9    10   am
     3    10     7    1
     4     7     1    1
     5     1     2    1
     6     2     3    1
     7     3     4    1
     8     4    20    1
     9    20    21    1
    10    21    22   ar
    11    22    23   ar
    12    23    24   ar
    13    24    25    1
    14    24    26   ar
    15    26    27   ar
    16     4     5    1
    17     5     6    1
    18     9    12    1
    19    12    13   ar
    20    13    14   ar
    21    14    15    1
    22    14    16   ar
    23    16    17   ar
    24    17    18    1
    25    17    19   ar
    26     6     1    1
    27    19    12   ar
    28    27    21   ar
    29    10    11    1
@<TRIPOS>MOLECULE
*****
 27 29 0 0 0
SMALL
GASTEIGER

@<TRIPOS>ATOM
      1 C         140.3352  139.1492  159.6920 C.3     1  UNL1        0.0224
      2 C         141.7346  138.8083  160.1108 C.3     1  UNL1        0.0191
      3 C         142.6314  138.0468  159.1804 C.3     1  UNL1        0.0724
      4 N         142.1289  137.6262  157.8311 N.3     1  UNL1       -0.2689
      5 C         140.7295  137.9671  157.4123 C.3     1  UNL1        0.0724
      6 C         139.8326  138.7286  158.3427 C.3     1  UNL1        0.0191
      7 C         139.4383  139.9107  160.6225 C.3     1  UNL1        0.0897
      8 O         138.6714  142.0237  162.6092 O.2     1  UNL1       -0.2701
      9 C         139.0554  140.6532  163.0826 C.2     1  UNL1        0.2459
     10 N         139.4389  139.5967  162.0892 N.am    1  UNL1       -0.3009
     11 H         139.6909  138.6971  162.3999 H       1  UNL1        0.1497
     12 C         139.0560  140.3391  164.5493 C.ar    1  UNL1        0.0550
     13 C         138.2288  139.2029  165.0734 C.ar    1  UNL1        0.0160
     14 C         138.2294  138.8889  166.5401 C.ar    1  UNL1        0.0587
     15 CL        137.4022  137.7526  167.0642 Cl      1  UNL1       -0.0822
     16 C         139.0573  139.7111  167.4829 C.ar    1  UNL1        0.0228
     17 C         139.8845  140.8473  166.9588 C.ar    1  UNL1        0.0587
     18 CL        140.7124  141.6695  167.9014 Cl      1  UNL1       -0.0822
     19 C         139.8839  141.1613  165.4920 C.ar    1  UNL1        0.0160
     20 C         143.0258  136.8647  156.9006 C.3     1  UNL1        0.1007
     21 C         142.6829  135.4567  156.5133 C.ar    1  UNL1        0.0131
     22 C         141.8563  135.1958  155.2891 C.ar    1  UNL1        0.0007
     23 C         141.5134  133.7877  154.9018 C.ar    1  UNL1        0.0257
     24 C         141.9971  132.6407  155.7387 C.ar    1  UNL1        0.1154
     25 BR        141.6542  131.2328  155.3513 Br      1  UNL1       -0.0280
     26 N         142.8237  132.9017  156.9629 N.ar    1  UNL1       -0.2374
     27 C         143.1666  134.3096  157.3502 C.ar    1  UNL1        0.0965
@<TRIPOS>BOND
     1     8     9    2
     2     9    10   am
     3    10     7    1
     4     7     1    1
     5     1     2    1
     6     2     3    1
     7     3     4    1
     8     4    20    1
     9    20    21    1
    10    21    22   ar
    11    22    23   ar
    12    23    24   ar
    13    24    25    1
    14    24    26   ar
    15    26    27   ar
    16     4     5    1
    17     5     6    1
    18     9    12    1
    19    12    13   ar
    20    13    14   ar
    21    14    15    1
    22    14    16   ar
    23    16    17   ar
    24    17    18    1
    25    17    19   ar
    26     6     1    1
    27    19    12   ar
    28    27    21   ar
    29    10    11    1
