@<TRIPOS>MOLECULE
*****
 41 46 0 0 0
SMALL
GASTEIGER

@<TRIPOS>ATOM
      1 C         138.3247  139.8822  159.4641 C.3     1  UNL1        0.0930
      2 C         139.4467  138.8867  159.4865 C.3     1  UNL1        0.0427
      3 C         139.9268  138.7611  160.9020 C.3     1  UNL1        0.0927
      4 N         139.1016  139.6789  161.7545 N.pl3   1  UNL1       -0.3033
      5 C         138.1115  140.3718  160.8658 C.3     1  UNL1        0.1104
      6 C         139.2419  139.8703  163.2356 C.ar    1  UNL1        0.0878
      7 C         138.7766  138.7998  164.1776 C.ar    1  UNL1        0.1543
      8 F         138.1710  137.5378  163.6385 F       1  UNL1       -0.2028
      9 C         138.9169  138.9912  165.6587 C.ar    1  UNL1        0.0356
     10 C         139.5225  140.2532  166.1978 C.ar    1  UNL1        0.0580
     11 C         139.6628  140.4445  167.6790 C.ar    1  UNL1        0.1996
     12 O         139.1975  139.3740  168.6209 O.2     1  UNL1       -0.2864
     13 C         140.2684  141.7065  168.2181 C.ar    1  UNL1        0.0701
     14 C         140.7337  142.7771  167.2760 C.ar    1  UNL1        0.0801
     15 N         140.5934  142.5857  165.7949 N.ar    1  UNL1       -0.3270
     16 C         139.9878  141.3237  165.2558 C.ar    1  UNL1        0.0750
     17 C         139.8475  141.1323  163.7748 C.ar    1  UNL1        0.0890
     18 CL        140.3128  142.2029  162.8327 Cl      1  UNL1       -0.0794
     19 C         140.4087  141.8979  169.6991 C.2     1  UNL1        0.0774
     20 O         139.1908  142.1251  170.5447 O.co2   1  UNL1       -0.5444
     21 O         141.7670  141.8622  170.3347 O.co2   1  UNL1       -0.5444
     22 C         141.0587  143.6563  164.8530 C.3     1  UNL1        0.0857
     23 C         140.7671  144.8656  164.0148 C.3     1  UNL1        0.0245
     24 C         142.1562  144.3013  164.0596 C.3     1  UNL1        0.0245
     25 C         137.7366  141.6933  157.6965 C.2     1  UNL1        0.2339
     26 O         138.6944  142.6438  158.3518 O.2     1  UNL1       -0.2741
     27 N         137.5518  140.3125  158.2527 N.am    1  UNL1       -0.3035
     28 H         136.9232  139.6886  157.8227 H       1  UNL1        0.1495
     29 C         136.9637  142.1235  156.4852 C.3     1  UNL1        0.1498
     30 S         136.2215  141.1071  155.6690 S.3     1  UNL1       -0.0659
     31 C         130.5722  138.8659  157.8288 C.2     1  UNL1        0.1223
     32 C         130.0060  139.8640  156.8628 C.2     1  UNL1        0.0343
     33 C         130.9259  140.7163  156.0397 C.2     1  UNL1        0.0232
     34 C         132.4119  140.5706  156.1827 C.2     1  UNL1        0.0975
     35 N         133.5580  141.2669  155.5108 N.2     1  UNL1       -0.2200
     36 C         134.8325  140.6992  156.0616 C.2     1  UNL1        0.1902
     37 N         134.4741  139.6520  157.0739 N.2     1  UNL1       -0.2236
     38 C         132.9781  139.5725  157.1488 C.2     1  UNL1        0.0863
     39 C         132.0582  138.7202  157.9718 C.3     1  UNL1        0.1112
     40 C         128.3380  137.5648  158.0852 C.3     1  UNL1        0.2520
     41 O         129.6523  138.0136  158.6519 O.2     1  UNL1       -0.4753
@<TRIPOS>UNITY_ATOM_ATTR
20 1
charge -1
@<TRIPOS>BOND
     1    40    41    1
     2    41    31    1
     3    31    32    2
     4    32    33    1
     5    33    34    2
     6    34    35    1
     7    35    36    2
     8    36    30    1
     9    30    29    1
    10    29    25    1
    11    25    26    2
    12    25    27   am
    13    27     1    1
    14     1     2    1
    15     2     3    1
    16     3     4    1
    17     4     6    1
    18     6     7   ar
    19     7     8    1
    20     7     9   ar
    21     9    10   ar
    22    10    11   ar
    23    11    12    2
    24    11    13   ar
    25    13    19    1
    26    19    20   ar
    27    19    21   ar
    28    13    14   ar
    29    14    15   ar
    30    15    22    1
    31    22    23    1
    32    23    24    1
    33    15    16   ar
    34    16    17   ar
    35    17    18    1
    36     4     5    1
    37    36    37    1
    38    37    38    2
    39    38    39    1
    40    39    31    1
    41    38    34    1
    42     5     1    1
    43    17     6   ar
    44    16    10   ar
    45    24    22    1
    46    27    28    1
@<TRIPOS>MOLECULE
*****
 41 46 0 0 0
SMALL
GASTEIGER

@<TRIPOS>ATOM
      1 C         140.5965  138.8199  160.5695 C.3     1  UNL1        0.0930
      2 C         139.3361  138.1610  161.0465 C.3     1  UNL1        0.0427
      3 C         139.2322  138.3763  162.5273 C.3     1  UNL1        0.0927
      4 N         140.4283  139.1682  162.9656 N.pl3   1  UNL1       -0.3033
      5 C         141.2715  139.4424  161.7556 C.3     1  UNL1        0.1104
      6 C         140.7287  139.6086  164.3677 C.ar    1  UNL1        0.0878
      7 C         141.4298  138.6780  165.3123 C.ar    1  UNL1        0.1543
      8 F         141.8307  137.3068  164.8548 F       1  UNL1       -0.2028
      9 C         141.7301  139.1184  166.7143 C.ar    1  UNL1        0.0356
     10 C         141.3292  140.4896  167.1718 C.ar    1  UNL1        0.0580
     11 C         141.6295  140.9300  168.5740 C.ar    1  UNL1        0.1996
     12 O         142.3307  139.9993  169.5185 O.2     1  UNL1       -0.2864
     13 C         141.2287  142.3011  169.0315 C.ar    1  UNL1        0.0701
     14 C         140.5275  143.2318  168.0868 C.ar    1  UNL1        0.0801
     15 N         140.2272  142.7914  166.6848 N.ar    1  UNL1       -0.3270
     16 C         140.6281  141.4202  166.2273 C.ar    1  UNL1        0.0750
     17 C         140.3278  140.9798  164.8252 C.ar    1  UNL1        0.0890
     18 CL        139.6266  141.9105  163.8806 Cl      1  UNL1       -0.0794
     19 C         141.5290  142.7416  170.4335 C.2     1  UNL1        0.0774
     20 O         142.6692  143.6799  170.6969 O.co2   1  UNL1       -0.5444
     21 O         140.6890  142.2437  171.5722 O.co2   1  UNL1       -0.5444
     22 C         139.5261  143.7220  165.7403 C.3     1  UNL1        0.0857
     23 C         139.5803  144.7372  164.6373 C.3     1  UNL1        0.0245
     24 C         138.2574  144.3188  165.2071 C.3     1  UNL1        0.0245
     25 C         142.3008  138.0485  158.7667 C.2     1  UNL1        0.2339
     26 O         143.0094  137.2152  159.7932 O.2     1  UNL1       -0.2741
     27 N         141.0943  138.8509  159.1549 N.am    1  UNL1       -0.3035
     28 H         140.6293  139.3978  158.4813 H       1  UNL1        0.1495
     29 C         142.7987  138.0795  157.3521 C.3     1  UNL1        0.1498
     30 S         142.0444  137.3570  156.2755 S.3     1  UNL1       -0.0659
     31 C         142.8691  130.9615  156.4199 C.2     1  UNL1        0.1223
     32 C         141.7792  130.9736  155.3894 C.2     1  UNL1        0.0343
     33 C         141.1775  132.2753  154.9494 C.2     1  UNL1        0.0232
     34 C         141.6657  133.5649  155.5398 C.2     1  UNL1        0.0975
     35 N         141.2667  134.9913  155.3040 N.2     1  UNL1       -0.2200
     36 C         142.1099  135.8609  156.1887 C.2     1  UNL1        0.1902
     37 N         143.0301  134.9718  156.9713 N.2     1  UNL1       -0.2236
     38 C         142.7556  133.5528  156.5703 C.2     1  UNL1        0.0863
     39 C         143.3573  132.2511  157.0104 C.3     1  UNL1        0.1112
     40 C         143.5183  129.3104  158.3180 C.3     1  UNL1        0.2520
     41 O         143.4708  129.6598  156.8600 O.2     1  UNL1       -0.4753
@<TRIPOS>UNITY_ATOM_ATTR
20 1
charge -1
@<TRIPOS>BOND
     1    40    41    1
     2    41    31    1
     3    31    32    2
     4    32    33    1
     5    33    34    2
     6    34    35    1
     7    35    36    2
     8    36    30    1
     9    30    29    1
    10    29    25    1
    11    25    26    2
    12    25    27   am
    13    27     1    1
    14     1     2    1
    15     2     3    1
    16     3     4    1
    17     4     6    1
    18     6     7   ar
    19     7     8    1
    20     7     9   ar
    21     9    10   ar
    22    10    11   ar
    23    11    12    2
    24    11    13   ar
    25    13    19    1
    26    19    20   ar
    27    19    21   ar
    28    13    14   ar
    29    14    15   ar
    30    15    22    1
    31    22    23    1
    32    23    24    1
    33    15    16   ar
    34    16    17   ar
    35    17    18    1
    36     4     5    1
    37    36    37    1
    38    37    38    2
    39    38    39    1
    40    39    31    1
    41    38    34    1
    42     5     1    1
    43    17     6   ar
    44    16    10   ar
    45    24    22    1
    46    27    28    1
@<TRIPOS>MOLECULE
*****
 41 46 0 0 0
SMALL
GASTEIGER

@<TRIPOS>ATOM
      1 C         140.5608  139.0771  159.0309 C.3     1  UNL1        0.0930
      2 C         140.1075  140.5067  158.9997 C.3     1  UNL1        0.0427
      3 C         139.7599  140.9134  160.4011 C.3     1  UNL1        0.0927
      4 N         139.9984  139.7353  161.2983 N.pl3   1  UNL1       -0.3033
      5 C         140.4934  138.6004  160.4515 C.3     1  UNL1        0.1104
      6 C         139.7802  139.6984  162.7820 C.ar    1  UNL1        0.0878
      7 C         138.6277  138.9257  163.3516 C.ar    1  UNL1        0.1543
      8 F         137.6933  138.1898  162.4376 F       1  UNL1       -0.2028
      9 C         138.4095  138.8889  164.8351 C.ar    1  UNL1        0.0356
     10 C         139.3439  139.6248  165.7491 C.ar    1  UNL1        0.0580
     11 C         139.1257  139.5880  167.2327 C.ar    1  UNL1        0.1996
     12 O         137.9732  138.8152  167.8023 O.2     1  UNL1       -0.2864
     13 C         140.0601  140.3239  168.1467 C.ar    1  UNL1        0.0701
     14 C         141.2127  141.0966  167.5770 C.ar    1  UNL1        0.0801
     15 N         141.4308  141.1335  166.0935 N.ar    1  UNL1       -0.3270
     16 C         140.4964  140.3975  165.1795 C.ar    1  UNL1        0.0750
     17 C         140.7146  140.4343  163.6959 C.ar    1  UNL1        0.0890
     18 CL        141.8672  141.2071  163.1262 Cl      1  UNL1       -0.0794
     19 C         139.8419  140.2871  169.6303 C.2     1  UNL1        0.0774
     20 O         140.6631  139.3692  170.4865 O.co2   1  UNL1       -0.5444
     21 O         138.8025  141.1681  170.2576 O.co2   1  UNL1       -0.5444
     22 C         142.5834  141.9062  165.5239 C.3     1  UNL1        0.0857
     23 C         143.1428  143.1800  164.9631 C.3     1  UNL1        0.0245
     24 C         144.0202  141.9709  165.0980 C.3     1  UNL1        0.0245
     25 C         142.4658  138.1134  157.5502 C.2     1  UNL1        0.2339
     26 O         143.4847  138.7706  158.4334 O.2     1  UNL1       -0.2741
     27 N         141.0038  138.2666  157.8490 N.am    1  UNL1       -0.3035
     28 H         140.3351  137.8353  157.2694 H       1  UNL1        0.1495
     29 C         142.9088  137.3029  156.3683 C.3     1  UNL1        0.1498
     30 S         142.1508  136.0684  155.9789 S.3     1  UNL1       -0.0659
     31 C         143.8074  129.9673  157.2579 C.2     1  UNL1        0.1223
     32 C         144.9472  130.6142  157.9875 C.2     1  UNL1        0.0343
     33 C         145.0657  132.1092  158.0190 C.2     1  UNL1        0.0232
     34 C         144.0443  132.9573  157.3209 C.2     1  UNL1        0.0975
     35 N         143.9007  134.4437  157.1803 N.2     1  UNL1       -0.2200
     36 C         142.6722  134.7156  156.3638 C.2     1  UNL1        0.1902
     37 N         142.0564  133.3972  155.9998 N.2     1  UNL1       -0.2236
     38 C         142.9045  132.3105  156.5913 C.2     1  UNL1        0.0863
     39 C         142.7860  130.8155  156.5598 C.3     1  UNL1        0.1112
     40 C         144.9140  127.6266  157.0419 C.3     1  UNL1        0.2520
     41 O         143.6889  128.4723  157.2264 O.2     1  UNL1       -0.4753
@<TRIPOS>UNITY_ATOM_ATTR
20 1
charge -1
@<TRIPOS>BOND
     1    40    41    1
     2    41    31    1
     3    31    32    2
     4    32    33    1
     5    33    34    2
     6    34    35    1
     7    35    36    2
     8    36    30    1
     9    30    29    1
    10    29    25    1
    11    25    26    2
    12    25    27   am
    13    27     1    1
    14     1     2    1
    15     2     3    1
    16     3     4    1
    17     4     6    1
    18     6     7   ar
    19     7     8    1
    20     7     9   ar
    21     9    10   ar
    22    10    11   ar
    23    11    12    2
    24    11    13   ar
    25    13    19    1
    26    19    20   ar
    27    19    21   ar
    28    13    14   ar
    29    14    15   ar
    30    15    22    1
    31    22    23    1
    32    23    24    1
    33    15    16   ar
    34    16    17   ar
    35    17    18    1
    36     4     5    1
    37    36    37    1
    38    37    38    2
    39    38    39    1
    40    39    31    1
    41    38    34    1
    42     5     1    1
    43    17     6   ar
    44    16    10   ar
    45    24    22    1
    46    27    28    1
@<TRIPOS>MOLECULE
*****
 41 46 0 0 0
SMALL
GASTEIGER

@<TRIPOS>ATOM
      1 C         143.6827  139.8619  160.1937 C.3     1  UNL1        0.0930
      2 C         144.1166  141.2776  160.4339 C.3     1  UNL1        0.0427
      3 C         143.9359  141.5766  161.8926 C.3     1  UNL1        0.0927
      4 N         143.3903  140.3458  162.5540 N.pl3   1  UNL1       -0.3033
      5 C         143.2339  139.2860  161.5040 C.3     1  UNL1        0.1104
      6 C         143.0593  140.2002  164.0098 C.ar    1  UNL1        0.0878
      7 C         143.9439  139.3806  164.9018 C.ar    1  UNL1        0.1543
      8 F         145.1596  138.7066  164.3380 F       1  UNL1       -0.2028
      9 C         143.6129  139.2351  166.3575 C.ar    1  UNL1        0.0356
     10 C         142.3972  139.9091  166.9212 C.ar    1  UNL1        0.0580
     11 C         142.0662  139.7635  168.3771 C.ar    1  UNL1        0.1996
     12 O         142.9509  138.9440  169.2690 O.2     1  UNL1       -0.2864
     13 C         140.8505  140.4375  168.9408 C.ar    1  UNL1        0.0701
     14 C         139.9659  141.2571  168.0487 C.ar    1  UNL1        0.0801
     15 N         140.2969  141.4027  166.5930 N.ar    1  UNL1       -0.3270
     16 C         141.5126  140.7287  166.0293 C.ar    1  UNL1        0.0750
     17 C         141.8436  140.8742  164.5735 C.ar    1  UNL1        0.0890
     18 CL        140.9590  141.6938  163.6815 Cl      1  UNL1       -0.0794
     19 C         140.5195  140.2920  170.3965 C.2     1  UNL1        0.0774
     20 O         141.4225  140.8897  171.4345 O.co2   1  UNL1       -0.5444
     21 O         139.2854  139.5487  170.8144 O.co2   1  UNL1       -0.5444
     22 C         139.4123  142.2223  165.7011 C.3     1  UNL1        0.0857
     23 C         138.2393  142.3219  164.7714 C.3     1  UNL1        0.0245
     24 C         139.0529  143.5422  165.0857 C.3     1  UNL1        0.0245
     25 C         142.6228  139.4219  157.8628 C.2     1  UNL1        0.2339
     26 O         141.5373  140.4107  158.1698 O.2     1  UNL1       -0.2741
     27 N         143.6955  139.1476  158.8748 N.am    1  UNL1       -0.3035
     28 H         144.4079  138.4986  158.6733 H       1  UNL1        0.1495
     29 C         142.6355  138.7076  156.5439 C.3     1  UNL1        0.1498
     30 S         141.6640  137.5945  156.2844 S.3     1  UNL1       -0.0659
     31 C         143.0301  131.2909  156.3098 C.2     1  UNL1        0.1223
     32 C         144.1049  131.7061  157.2702 C.2     1  UNL1        0.0343
     33 C         144.2563  133.1499  157.6479 C.2     1  UNL1        0.0232
     34 C         143.3330  134.1784  157.0651 C.2     1  UNL1        0.0975
     35 N         143.2412  135.6642  157.2493 N.2     1  UNL1       -0.2200
     36 C         142.1097  136.1672  156.4028 C.2     1  UNL1        0.1902
     37 N         141.5022  134.9923  155.6954 N.2     1  UNL1       -0.2236
     38 C         142.2582  133.7631  156.1048 C.2     1  UNL1        0.0863
     39 C         142.1067  132.3194  155.7271 C.3     1  UNL1        0.1112
     40 C         143.1148  128.7755  156.9549 C.3     1  UNL1        0.2520
     41 O         142.8787  129.8471  155.9321 O.2     1  UNL1       -0.4753
@<TRIPOS>UNITY_ATOM_ATTR
20 1
charge -1
@<TRIPOS>BOND
     1    40    41    1
     2    41    31    1
     3    31    32    2
     4    32    33    1
     5    33    34    2
     6    34    35    1
     7    35    36    2
     8    36    30    1
     9    30    29    1
    10    29    25    1
    11    25    26    2
    12    25    27   am
    13    27     1    1
    14     1     2    1
    15     2     3    1
    16     3     4    1
    17     4     6    1
    18     6     7   ar
    19     7     8    1
    20     7     9   ar
    21     9    10   ar
    22    10    11   ar
    23    11    12    2
    24    11    13   ar
    25    13    19    1
    26    19    20   ar
    27    19    21   ar
    28    13    14   ar
    29    14    15   ar
    30    15    22    1
    31    22    23    1
    32    23    24    1
    33    15    16   ar
    34    16    17   ar
    35    17    18    1
    36     4     5    1
    37    36    37    1
    38    37    38    2
    39    38    39    1
    40    39    31    1
    41    38    34    1
    42     5     1    1
    43    17     6   ar
    44    16    10   ar
    45    24    22    1
    46    27    28    1
@<TRIPOS>MOLECULE
*****
 41 46 0 0 0
SMALL
GASTEIGER

@<TRIPOS>ATOM
      1 C         142.6158  139.0220  160.7279 C.3     1  UNL1        0.0930
      2 C         143.6633  138.1272  161.3216 C.3     1  UNL1        0.0427
      3 C         143.7802  138.4551  162.7807 C.3     1  UNL1        0.0927
      4 N         142.8051  139.5525  163.0888 N.pl3   1  UNL1       -0.3033
      5 C         142.0855  139.9028  161.8201 C.3     1  UNL1        0.1104
      6 C         142.5878  140.1880  164.4301 C.ar    1  UNL1        0.0878
      7 C         143.6338  141.0937  165.0092 C.ar    1  UNL1        0.1543
      8 F         144.8972  141.3640  164.2471 F       1  UNL1       -0.2028
      9 C         143.4164  141.7291  166.3504 C.ar    1  UNL1        0.0356
     10 C         142.1530  141.4588  167.1125 C.ar    1  UNL1        0.0580
     11 C         141.9356  142.0943  168.4538 C.ar    1  UNL1        0.1996
     12 O         142.9816  143.0001  169.0329 O.2     1  UNL1       -0.2864
     13 C         140.6722  141.8240  169.2158 C.ar    1  UNL1        0.0701
     14 C         139.6262  140.9183  168.6366 C.ar    1  UNL1        0.0801
     15 N         139.8436  140.2828  167.2954 N.ar    1  UNL1       -0.3270
     16 C         141.1070  140.5531  166.5333 C.ar    1  UNL1        0.0750
     17 C         141.3244  139.9177  165.1921 C.ar    1  UNL1        0.0890
     18 CL        140.2783  139.0119  164.6129 Cl      1  UNL1       -0.0794
     19 C         140.4548  142.4595  170.5571 C.2     1  UNL1        0.0774
     20 O         140.7257  141.6795  171.8093 O.co2   1  UNL1       -0.5444
     21 O         139.9665  143.8750  170.6461 O.co2   1  UNL1       -0.5444
     22 C         138.7975  139.3771  166.7162 C.3     1  UNL1        0.0857
     23 C         137.8803  139.0060  165.5889 C.3     1  UNL1        0.0245
     24 C         137.9030  138.1795  166.8404 C.3     1  UNL1        0.0245
     25 C         143.0938  139.5637  158.2323 C.2     1  UNL1        0.2339
     26 O         144.4513  140.0819  158.6048 O.2     1  UNL1       -0.2741
     27 N         142.1760  139.0338  159.2939 N.am    1  UNL1       -0.3035
     28 H         141.2850  138.6938  159.0495 H       1  UNL1        0.1495
     29 C         142.6539  139.5756  156.7983 C.3     1  UNL1        0.1498
     30 S         141.6537  138.5689  156.3123 S.3     1  UNL1       -0.0659
     31 C         143.5244  132.4467  157.1014 C.2     1  UNL1        0.1223
     32 C         142.5233  132.1846  156.0155 C.2     1  UNL1        0.0343
     33 C         141.7449  133.3216  155.4227 C.2     1  UNL1        0.0232
     34 C         141.9676  134.7207  155.9157 C.2     1  UNL1        0.0975
     35 N         141.3532  136.0321  155.5253 N.2     1  UNL1       -0.2200
     36 C         141.9745  137.1048  156.3699 C.2     1  UNL1        0.1902
     37 N         142.9730  136.4562  157.2822 N.2     1  UNL1       -0.2236
     38 C         142.9687  134.9827  157.0015 C.2     1  UNL1        0.0863
     39 C         143.7471  133.8458  157.5944 C.3     1  UNL1        0.1112
     40 C         143.7261  129.9251  157.6936 C.3     1  UNL1        0.2520
     41 O         144.3028  131.3098  157.6942 O.2     1  UNL1       -0.4753
@<TRIPOS>UNITY_ATOM_ATTR
20 1
charge -1
@<TRIPOS>BOND
     1    40    41    1
     2    41    31    1
     3    31    32    2
     4    32    33    1
     5    33    34    2
     6    34    35    1
     7    35    36    2
     8    36    30    1
     9    30    29    1
    10    29    25    1
    11    25    26    2
    12    25    27   am
    13    27     1    1
    14     1     2    1
    15     2     3    1
    16     3     4    1
    17     4     6    1
    18     6     7   ar
    19     7     8    1
    20     7     9   ar
    21     9    10   ar
    22    10    11   ar
    23    11    12    2
    24    11    13   ar
    25    13    19    1
    26    19    20   ar
    27    19    21   ar
    28    13    14   ar
    29    14    15   ar
    30    15    22    1
    31    22    23    1
    32    23    24    1
    33    15    16   ar
    34    16    17   ar
    35    17    18    1
    36     4     5    1
    37    36    37    1
    38    37    38    2
    39    38    39    1
    40    39    31    1
    41    38    34    1
    42     5     1    1
    43    17     6   ar
    44    16    10   ar
    45    24    22    1
    46    27    28    1
@<TRIPOS>MOLECULE
*****
 41 46 0 0 0
SMALL
GASTEIGER

@<TRIPOS>ATOM
      1 C         143.6853  140.8794  160.7400 C.3     1  UNL1        0.0930
      2 C         144.2031  139.5590  161.2283 C.3     1  UNL1        0.0427
      3 C         144.0102  139.5064  162.7149 C.3     1  UNL1        0.0927
      4 N         143.3731  140.7943  163.1455 N.pl3   1  UNL1       -0.3033
      5 C         143.1723  141.6429  161.9250 C.3     1  UNL1        0.1104
      6 C         143.0020  141.1680  164.5500 C.ar    1  UNL1        0.0878
      7 C         143.9063  142.0544  165.3541 C.ar    1  UNL1        0.1543
      8 F         145.1817  142.5671  164.7537 F       1  UNL1       -0.2028
      9 C         143.5351  142.4281  166.7585 C.ar    1  UNL1        0.0356
     10 C         142.2597  141.9155  167.3589 C.ar    1  UNL1        0.0580
     11 C         141.8885  142.2892  168.7634 C.ar    1  UNL1        0.1996
     12 O         142.7928  143.1756  169.5675 O.2     1  UNL1       -0.2864
     13 C         140.6131  141.7766  169.3638 C.ar    1  UNL1        0.0701
     14 C         139.7088  140.8901  168.5596 C.ar    1  UNL1        0.0801
     15 N         140.0800  140.5164  167.1552 N.ar    1  UNL1       -0.3270
     16 C         141.3554  141.0291  166.5548 C.ar    1  UNL1        0.0750
     17 C         141.7266  140.6554  165.1504 C.ar    1  UNL1        0.0890
     18 CL        140.8223  139.7690  164.3462 Cl      1  UNL1       -0.0794
     19 C         140.2419  142.1503  170.7682 C.2     1  UNL1        0.0774
     20 O         140.7462  141.3325  171.9202 O.co2   1  UNL1       -0.5444
     21 O         139.3664  143.3419  171.0208 O.co2   1  UNL1       -0.5444
     22 C         139.1757  139.6301  166.3511 C.3     1  UNL1        0.0857
     23 C         138.6871  138.2589  165.9887 C.3     1  UNL1        0.0245
     24 C         138.0980  139.4659  165.3208 C.3     1  UNL1        0.0245
     25 C         142.5766  140.9373  158.3911 C.2     1  UNL1        0.2339
     26 O         141.4762  140.0475  158.8886 O.2     1  UNL1       -0.2741
     27 N         143.6812  141.3532  159.3169 N.am    1  UNL1       -0.3035
     28 H         144.4034  141.9372  158.9904 H       1  UNL1        0.1495
     29 C         142.5725  141.4111  156.9679 C.3     1  UNL1        0.1498
     30 S         143.2922  142.6734  156.5956 S.3     1  UNL1       -0.0659
     31 C         149.4244  142.0472  154.6962 C.2     1  UNL1        0.1223
     32 C         148.9237  142.7173  153.4511 C.2     1  UNL1        0.0343
     33 C         147.4806  143.1114  153.3399 C.2     1  UNL1        0.0232
     34 C         146.5383  142.8354  154.4738 C.2     1  UNL1        0.0975
     35 N         145.0739  143.1073  154.6507 N.2     1  UNL1       -0.2200
     36 C         144.6694  142.6052  156.0051 C.2     1  UNL1        0.1902
     37 N         145.8839  142.0230  156.6653 N.2     1  UNL1       -0.2236
     38 C         147.0390  142.1653  155.7189 C.2     1  UNL1        0.0863
     39 C         148.4820  141.7712  155.8301 C.3     1  UNL1        0.1112
     40 C         151.9409  142.6062  154.3723 C.3     1  UNL1        0.2520
     41 O         150.8674  141.6531  154.8073 O.2     1  UNL1       -0.4753
@<TRIPOS>UNITY_ATOM_ATTR
20 1
charge -1
@<TRIPOS>BOND
     1    40    41    1
     2    41    31    1
     3    31    32    2
     4    32    33    1
     5    33    34    2
     6    34    35    1
     7    35    36    2
     8    36    30    1
     9    30    29    1
    10    29    25    1
    11    25    26    2
    12    25    27   am
    13    27     1    1
    14     1     2    1
    15     2     3    1
    16     3     4    1
    17     4     6    1
    18     6     7   ar
    19     7     8    1
    20     7     9   ar
    21     9    10   ar
    22    10    11   ar
    23    11    12    2
    24    11    13   ar
    25    13    19    1
    26    19    20   ar
    27    19    21   ar
    28    13    14   ar
    29    14    15   ar
    30    15    22    1
    31    22    23    1
    32    23    24    1
    33    15    16   ar
    34    16    17   ar
    35    17    18    1
    36     4     5    1
    37    36    37    1
    38    37    38    2
    39    38    39    1
    40    39    31    1
    41    38    34    1
    42     5     1    1
    43    17     6   ar
    44    16    10   ar
    45    24    22    1
    46    27    28    1
@<TRIPOS>MOLECULE
*****
 41 46 0 0 0
SMALL
GASTEIGER

@<TRIPOS>ATOM
      1 C         141.8368  142.0470  160.0013 C.3     1  UNL1        0.0930
      2 C         140.8115  143.0997  160.3026 C.3     1  UNL1        0.0427
      3 C         140.7643  143.2886  161.7899 C.3     1  UNL1        0.0927
      4 N         141.7603  142.3526  162.4079 N.pl3   1  UNL1       -0.3033
      5 C         142.4232  141.5853  161.3025 C.3     1  UNL1        0.1104
      6 C         142.0438  142.2092  163.8739 C.ar    1  UNL1        0.0878
      7 C         143.1462  143.0060  164.5061 C.ar    1  UNL1        0.1543
      8 F         143.9652  143.9463  163.6724 F       1  UNL1       -0.2028
      9 C         143.4296  142.8625  165.9721 C.ar    1  UNL1        0.0356
     10 C         142.6107  141.9222  166.8058 C.ar    1  UNL1        0.0580
     11 C         142.8942  141.7787  168.2718 C.ar    1  UNL1        0.1996
     12 O         143.9966  142.5756  168.9040 O.2     1  UNL1       -0.2864
     13 C         142.0752  140.8384  169.1055 C.ar    1  UNL1        0.0701
     14 C         140.9727  140.0416  168.4732 C.ar    1  UNL1        0.0801
     15 N         140.6893  140.1851  167.0073 N.ar    1  UNL1       -0.3270
     16 C         141.5083  141.1254  166.1736 C.ar    1  UNL1        0.0750
     17 C         141.2249  141.2689  164.7076 C.ar    1  UNL1        0.0890
     18 CL        140.1224  140.4720  164.0753 Cl      1  UNL1       -0.0794
     19 C         142.3586  140.6949  170.5715 C.2     1  UNL1        0.0774
     20 O         141.5836  141.5050  171.5680 O.co2   1  UNL1       -0.5444
     21 O         143.4172  139.7413  171.0409 O.co2   1  UNL1       -0.5444
     22 C         139.5869  139.3882  166.3751 C.3     1  UNL1        0.0857
     23 C         138.1236  139.1251  166.1763 C.3     1  UNL1        0.0245
     24 C         139.1407  138.2713  165.4789 C.3     1  UNL1        0.0245
     25 C         141.9057  140.1272  158.2522 C.2     1  UNL1        0.2339
     26 O         141.2280  139.2127  159.2292 O.2     1  UNL1       -0.2741
     27 N         142.2101  141.5443  158.6383 N.am    1  UNL1       -0.3035
     28 H         142.6549  142.1445  157.9971 H       1  UNL1        0.1495
     29 C         142.2791  139.6245  156.8891 C.3     1  UNL1        0.1498
     30 S         141.4197  138.6029  156.2052 S.3     1  UNL1       -0.0659
     31 C         143.4986  132.5499  157.0065 C.2     1  UNL1        0.1223
     32 C         142.4767  132.2451  155.9516 C.2     1  UNL1        0.0343
     33 C         141.6478  133.3510  155.3686 C.2     1  UNL1        0.0232
     34 C         141.8408  134.7617  155.8405 C.2     1  UNL1        0.0975
     35 N         141.1759  136.0493  155.4536 N.2     1  UNL1       -0.2200
     36 C         141.7868  137.1500  156.2693 C.2     1  UNL1        0.1902
     37 N         142.8293  136.5425  157.1604 N.2     1  UNL1       -0.2236
     38 C         142.8627  135.0665  156.8954 C.2     1  UNL1        0.0863
     39 C         143.6916  133.9606  157.4784 C.3     1  UNL1        0.1112
     40 C         143.7342  130.0785  157.7725 C.3     1  UNL1        0.2520
     41 O         144.3275  131.4439  157.5895 O.2     1  UNL1       -0.4753
@<TRIPOS>UNITY_ATOM_ATTR
20 1
charge -1
@<TRIPOS>BOND
     1    40    41    1
     2    41    31    1
     3    31    32    2
     4    32    33    1
     5    33    34    2
     6    34    35    1
     7    35    36    2
     8    36    30    1
     9    30    29    1
    10    29    25    1
    11    25    26    2
    12    25    27   am
    13    27     1    1
    14     1     2    1
    15     2     3    1
    16     3     4    1
    17     4     6    1
    18     6     7   ar
    19     7     8    1
    20     7     9   ar
    21     9    10   ar
    22    10    11   ar
    23    11    12    2
    24    11    13   ar
    25    13    19    1
    26    19    20   ar
    27    19    21   ar
    28    13    14   ar
    29    14    15   ar
    30    15    22    1
    31    22    23    1
    32    23    24    1
    33    15    16   ar
    34    16    17   ar
    35    17    18    1
    36     4     5    1
    37    36    37    1
    38    37    38    2
    39    38    39    1
    40    39    31    1
    41    38    34    1
    42     5     1    1
    43    17     6   ar
    44    16    10   ar
    45    24    22    1
    46    27    28    1
@<TRIPOS>MOLECULE
*****
 41 46 0 0 0
SMALL
GASTEIGER

@<TRIPOS>ATOM
      1 C         139.3465  142.1487  160.2832 C.3     1  UNL1        0.0930
      2 C         138.2557  141.2127  160.7125 C.3     1  UNL1        0.0427
      3 C         138.2597  141.1527  162.2113 C.3     1  UNL1        0.0927
      4 N         139.3529  142.0515  162.7083 N.pl3   1  UNL1       -0.3033
      5 C         140.0245  142.6671  161.5167 C.3     1  UNL1        0.1104
      6 C         139.7115  142.2926  164.1448 C.ar    1  UNL1        0.0878
      7 C         138.9787  143.3351  164.9360 C.ar    1  UNL1        0.1543
      8 F         137.8873  144.1367  164.2908 F       1  UNL1       -0.2028
      9 C         139.3373  143.5761  166.3724 C.ar    1  UNL1        0.0356
     10 C         140.4287  142.7746  167.0176 C.ar    1  UNL1        0.0580
     11 C         140.7873  143.0156  168.4541 C.ar    1  UNL1        0.1996
     12 O         140.0545  144.0582  169.2452 O.2     1  UNL1       -0.2864
     13 C         141.8787  142.2140  169.0993 C.ar    1  UNL1        0.0701
     14 C         142.6115  141.1714  168.3080 C.ar    1  UNL1        0.0801
     15 N         142.2529  140.9304  166.8716 N.ar    1  UNL1       -0.3270
     16 C         141.1615  141.7320  166.2264 C.ar    1  UNL1        0.0750
     17 C         140.8029  141.4910  164.7900 C.ar    1  UNL1        0.0890
     18 CL        141.5357  140.4484  163.9987 Cl      1  UNL1       -0.0794
     19 C         142.2373  142.4550  170.5357 C.2     1  UNL1        0.0774
     20 O         141.6937  141.5551  171.6056 O.co2   1  UNL1       -0.5444
     21 O         143.1395  143.5959  170.9022 O.co2   1  UNL1       -0.5444
     22 C         142.9857  139.8878  166.0804 C.3     1  UNL1        0.0857
     23 C         143.2030  138.4496  165.7142 C.3     1  UNL1        0.0245
     24 C         144.0376  139.5203  165.0763 C.3     1  UNL1        0.0245
     25 C         140.0071  143.9264  158.5074 C.2     1  UNL1        0.2339
     26 O         139.9657  144.9938  159.5606 O.2     1  UNL1       -0.2741
     27 N         139.6975  142.5039  158.8688 N.am    1  UNL1       -0.3035
     28 H         139.7247  141.8033  158.1776 H       1  UNL1        0.1495
     29 C         140.3581  144.2816  157.0930 C.3     1  UNL1        0.1498
     30 S         139.2906  144.7550  156.1516 S.3     1  UNL1       -0.0659
     31 C         138.9332  151.0468  154.7774 C.2     1  UNL1        0.1223
     32 C         139.5923  150.6259  153.4974 C.2     1  UNL1        0.0343
     33 C         139.9274  149.1823  153.2658 C.2     1  UNL1        0.0232
     34 C         139.6036  148.1596  154.3142 C.2     1  UNL1        0.0975
     35 N         139.8134  146.6753  154.3672 N.2     1  UNL1       -0.2200
     36 C         139.2841  146.1789  155.6800 C.2     1  UNL1        0.1902
     37 N         138.7471  147.3564  156.4383 N.2     1  UNL1       -0.2236
     38 C         138.9445  148.5805  155.5942 C.2     1  UNL1        0.0863
     39 C         138.6094  150.0241  155.8258 C.3     1  UNL1        0.1112
     40 C         138.3372  153.3964  153.8423 C.3     1  UNL1        0.2520
     41 O         138.5981  152.4905  155.0090 O.2     1  UNL1       -0.4753
@<TRIPOS>UNITY_ATOM_ATTR
20 1
charge -1
@<TRIPOS>BOND
     1    40    41    1
     2    41    31    1
     3    31    32    2
     4    32    33    1
     5    33    34    2
     6    34    35    1
     7    35    36    2
     8    36    30    1
     9    30    29    1
    10    29    25    1
    11    25    26    2
    12    25    27   am
    13    27     1    1
    14     1     2    1
    15     2     3    1
    16     3     4    1
    17     4     6    1
    18     6     7   ar
    19     7     8    1
    20     7     9   ar
    21     9    10   ar
    22    10    11   ar
    23    11    12    2
    24    11    13   ar
    25    13    19    1
    26    19    20   ar
    27    19    21   ar
    28    13    14   ar
    29    14    15   ar
    30    15    22    1
    31    22    23    1
    32    23    24    1
    33    15    16   ar
    34    16    17   ar
    35    17    18    1
    36     4     5    1
    37    36    37    1
    38    37    38    2
    39    38    39    1
    40    39    31    1
    41    38    34    1
    42     5     1    1
    43    17     6   ar
    44    16    10   ar
    45    24    22    1
    46    27    28    1
@<TRIPOS>MOLECULE
*****
 41 46 0 0 0
SMALL
GASTEIGER

@<TRIPOS>ATOM
      1 C         142.8329  141.6767  159.1497 C.3     1  UNL1        0.0930
      2 C         143.7270  142.8043  159.5732 C.3     1  UNL1        0.0427
      3 C         143.8214  142.7838  161.0701 C.3     1  UNL1        0.0927
      4 N         142.9857  141.6436  161.5717 N.pl3   1  UNL1       -0.3033
      5 C         142.3748  140.9594  160.3849 C.3     1  UNL1        0.1104
      6 C         142.7945  141.2557  163.0081 C.ar    1  UNL1        0.0878
      7 C         143.6957  140.2338  163.6354 C.ar    1  UNL1        0.1543
      8 F         144.7881  139.5998  162.8264 F       1  UNL1       -0.2028
      9 C         143.5044  139.8460  165.0717 C.ar    1  UNL1        0.0356
     10 C         142.4120  140.4801  165.8807 C.ar    1  UNL1        0.0580
     11 C         142.2207  140.0922  167.3170 C.ar    1  UNL1        0.1996
     12 O         143.1219  139.0703  167.9443 O.2     1  UNL1       -0.2864
     13 C         141.1283  140.7262  168.1260 C.ar    1  UNL1        0.0701
     14 C         140.2270  141.7482  167.4987 C.ar    1  UNL1        0.0801
     15 N         140.4183  142.1360  166.0624 N.ar    1  UNL1       -0.3270
     16 C         141.5108  141.5019  165.2534 C.ar    1  UNL1        0.0750
     17 C         141.7020  141.8898  163.8171 C.ar    1  UNL1        0.0890
     18 CL        140.8008  142.9117  163.1898 Cl      1  UNL1       -0.0794
     19 C         140.9370  140.3384  169.5623 C.2     1  UNL1        0.0774
     20 O         141.9992  140.6559  170.5728 O.co2   1  UNL1       -0.5444
     21 O         139.6835  139.6330  169.9882 O.co2   1  UNL1       -0.5444
     22 C         139.5171  143.1579  165.4351 C.3     1  UNL1        0.0857
     23 C         139.2045  144.5879  165.1076 C.3     1  UNL1        0.0245
     24 C         138.2688  143.4979  164.6762 C.3     1  UNL1        0.0245
     25 C         143.3976  140.5108  156.8976 C.2     1  UNL1        0.2339
     26 O         144.7040  140.0429  157.4674 O.2     1  UNL1       -0.2741
     27 N         142.4621  141.3277  157.7388 N.am    1  UNL1       -0.3035
     28 H         141.6047  141.6348  157.3649 H       1  UNL1        0.1495
     29 C         143.0268  140.1619  155.4867 C.3     1  UNL1        0.1498
     30 S         143.7501  139.0591  154.7720 S.3     1  UNL1       -0.0659
     31 C         142.9084  132.9086  156.5230 C.2     1  UNL1        0.1223
     32 C         141.7508  132.9791  155.5718 C.2     1  UNL1        0.0343
     33 C         141.4600  134.2544  154.8375 C.2     1  UNL1        0.0232
     34 C         142.3268  135.4592  155.0545 C.2     1  UNL1        0.0975
     35 N         142.2854  136.8427  154.4766 N.2     1  UNL1       -0.2200
     36 C         143.4175  137.6273  155.0706 C.2     1  UNL1        0.1902
     37 N         144.1585  136.7286  156.0157 N.2     1  UNL1       -0.2236
     38 C         143.4845  135.3887  156.0058 C.2     1  UNL1        0.0863
     39 C         143.7752  134.1134  156.7400 C.3     1  UNL1        0.1112
     40 C         144.6185  131.1959  157.4678 C.3     1  UNL1        0.2520
     41 O         143.1992  131.6333  157.2573 O.2     1  UNL1       -0.4753
@<TRIPOS>UNITY_ATOM_ATTR
20 1
charge -1
@<TRIPOS>BOND
     1    40    41    1
     2    41    31    1
     3    31    32    2
     4    32    33    1
     5    33    34    2
     6    34    35    1
     7    35    36    2
     8    36    30    1
     9    30    29    1
    10    29    25    1
    11    25    26    2
    12    25    27   am
    13    27     1    1
    14     1     2    1
    15     2     3    1
    16     3     4    1
    17     4     6    1
    18     6     7   ar
    19     7     8    1
    20     7     9   ar
    21     9    10   ar
    22    10    11   ar
    23    11    12    2
    24    11    13   ar
    25    13    19    1
    26    19    20   ar
    27    19    21   ar
    28    13    14   ar
    29    14    15   ar
    30    15    22    1
    31    22    23    1
    32    23    24    1
    33    15    16   ar
    34    16    17   ar
    35    17    18    1
    36     4     5    1
    37    36    37    1
    38    37    38    2
    39    38    39    1
    40    39    31    1
    41    38    34    1
    42     5     1    1
    43    17     6   ar
    44    16    10   ar
    45    24    22    1
    46    27    28    1
