@<TRIPOS>MOLECULE
*****
 35 38 0 0 0
SMALL
GASTEIGER

@<TRIPOS>ATOM
      1 C         143.2944  142.5970  165.0340 C.ar    1  UNL1        0.1532
      2 C         143.3041  142.1223  166.4569 C.ar    1  UNL1        0.0573
      3 C         142.0830  141.4748  167.0398 C.ar    1  UNL1        0.0856
      4 N         142.0927  141.0001  168.4627 N.ar    1  UNL1       -0.2435
      5 C         140.8717  140.3526  169.0457 C.ar    1  UNL1        0.1045
      6 C         139.6409  140.1798  168.2057 C.ar    1  UNL1        0.0856
      7 C         139.6313  140.6545  166.7829 C.ar    1  UNL1        0.0557
      8 C         140.8523  141.3020  166.1999 C.ar    1  UNL1        0.0327
      9 C         140.8426  141.7767  164.7771 C.ar    1  UNL1        0.0203
     10 C         142.0637  142.4242  164.1941 C.ar    1  UNL1        0.0825
     11 N         142.0540  142.8989  162.7712 N.pl3   1  UNL1       -0.3023
     12 C         142.5112  141.9856  161.6728 C.3     1  UNL1        0.1082
     13 C         142.5015  142.4602  160.2499 C.3     1  UNL1        0.0938
     14 N         142.0345  143.8483  159.9254 N.3     1  UNL1       -0.2686
     15 C         142.0248  144.3230  158.5026 C.3     1  UNL1        0.0897
     16 C         141.5773  144.7617  161.0239 C.3     1  UNL1        0.0938
     17 C         141.5870  144.2870  162.4468 C.3     1  UNL1        0.1082
     18 C         138.4199  139.5324  168.7887 C.2     1  UNL1        0.2455
     19 N         138.0269  139.8143  170.2085 N.am    1  UNL1       -0.3252
     20 O         137.5919  138.6028  167.9517 O.2     1  UNL1       -0.2703
     21 H         138.5704  140.4244  170.7578 H       1  UNL1        0.1453
     22 H         137.2255  139.3894  170.5911 H       1  UNL1        0.1453
     23 N         138.4006  140.4818  165.9430 N.pl3   1  UNL1       -0.3117
     24 H         137.5572  140.9133  166.2109 H       1  UNL1        0.1522
     25 C         138.4548  139.6515  164.6949 C.ar    1  UNL1        0.0598
     26 C         139.0605  138.2797  164.7324 C.ar    1  UNL1        0.0155
     27 C         139.1147  137.4494  163.4843 C.ar    1  UNL1        0.0022
     28 C         138.5632  137.9909  162.1987 C.ar    1  UNL1        0.0123
     29 C         137.9574  139.3626  162.1612 C.ar    1  UNL1        0.0694
     30 CL        137.4059  139.9041  160.8757 Cl      1  UNL1       -0.0813
     31 C         137.9032  140.1929  163.4094 C.ar    1  UNL1        0.0815
     32 CL        137.2975  141.5647  163.3719 Cl      1  UNL1       -0.0801
     33 O         144.5154  143.2445  164.4511 O.3     1  UNL1       -0.4742
     34 C         145.4301  140.9140  163.7566 C.3     1  UNL1        0.0512
     35 C         145.5421  142.4098  163.7446 C.3     1  UNL1        0.2056
@<TRIPOS>BOND
     1    34    35    1
     2    35    33    1
     3    33     1    1
     4     1     2   ar
     5     2     3   ar
     6     3     4   ar
     7     4     5   ar
     8     5     6   ar
     9     6    18    1
    10    18    19   am
    11    18    20    2
    12     6     7   ar
    13     7    23    1
    14    23    25    1
    15    25    26   ar
    16    26    27   ar
    17    27    28   ar
    18    28    29   ar
    19    29    30    1
    20    29    31   ar
    21    31    32    1
    22     7     8   ar
    23     8     9   ar
    24     9    10   ar
    25    10    11    1
    26    11    12    1
    27    12    13    1
    28    13    14    1
    29    14    15    1
    30    14    16    1
    31    16    17    1
    32    10     1   ar
    33    17    11    1
    34     8     3   ar
    35    31    25   ar
    36    19    21    1
    37    19    22    1
    38    23    24    1
@<TRIPOS>MOLECULE
*****
 35 38 0 0 0
SMALL
GASTEIGER

@<TRIPOS>ATOM
      1 C         143.9411  142.2828  164.6060 C.ar    1  UNL1        0.1532
      2 C         143.8944  142.6954  166.0473 C.ar    1  UNL1        0.0573
      3 C         142.8900  142.0753  166.9728 C.ar    1  UNL1        0.0856
      4 N         142.8433  142.4880  168.4142 N.ar    1  UNL1       -0.2435
      5 C         141.8389  141.8680  169.3398 C.ar    1  UNL1        0.1045
      6 C         140.8811  140.8352  168.8239 C.ar    1  UNL1        0.0856
      7 C         140.9277  140.4225  167.3825 C.ar    1  UNL1        0.0557
      8 C         141.9322  141.0426  166.4570 C.ar    1  UNL1        0.0327
      9 C         141.9789  140.6300  165.0157 C.ar    1  UNL1        0.0203
     10 C         142.9833  141.2500  164.0902 C.ar    1  UNL1        0.0825
     11 N         143.0299  140.8373  162.6487 N.pl3   1  UNL1       -0.3023
     12 C         142.0791  141.4484  161.6626 C.3     1  UNL1        0.1082
     13 C         142.1257  141.0357  160.2212 C.3     1  UNL1        0.0938
     14 N         143.1232  140.0120  159.7660 N.3     1  UNL1       -0.2686
     15 C         143.1698  139.5994  158.3247 C.3     1  UNL1        0.0897
     16 C         144.0740  139.4010  160.7522 C.3     1  UNL1        0.0938
     17 C         144.0274  139.8137  162.1936 C.3     1  UNL1        0.1082
     18 C         139.8766  140.2151  169.7494 C.2     1  UNL1        0.2455
     19 N         140.2180  140.0054  171.1949 N.am    1  UNL1       -0.3252
     20 O         138.5307  139.8048  169.2294 O.2     1  UNL1       -0.2703
     21 H         141.1013  140.2747  171.5361 H       1  UNL1        0.1453
     22 H         139.5587  139.5984  171.8023 H       1  UNL1        0.1453
     23 N         139.9700  139.3898  166.8667 N.pl3   1  UNL1       -0.3117
     24 H         139.8229  138.5584  167.3730 H       1  UNL1        0.1522
     25 C         139.2362  139.6239  165.5795 C.ar    1  UNL1        0.0598
     26 C         138.4753  140.8996  165.3712 C.ar    1  UNL1        0.0155
     27 C         137.7416  141.1337  164.0840 C.ar    1  UNL1        0.0022
     28 C         137.7688  140.0920  163.0050 C.ar    1  UNL1        0.0123
     29 C         138.5298  138.8162  163.2133 C.ar    1  UNL1        0.0694
     30 CL        138.5571  137.7745  162.1344 Cl      1  UNL1       -0.0813
     31 C         139.2635  138.5822  164.5005 C.ar    1  UNL1        0.0815
     32 CL        140.0245  137.3064  164.7088 Cl      1  UNL1       -0.0801
     33 O         144.9455  142.9028  163.6804 O.3     1  UNL1       -0.4742
     34 C         143.5838  145.0636  163.2041 C.3     1  UNL1        0.0512
     35 C         144.5255  143.9926  162.7392 C.3     1  UNL1        0.2056
@<TRIPOS>BOND
     1    34    35    1
     2    35    33    1
     3    33     1    1
     4     1     2   ar
     5     2     3   ar
     6     3     4   ar
     7     4     5   ar
     8     5     6   ar
     9     6    18    1
    10    18    19   am
    11    18    20    2
    12     6     7   ar
    13     7    23    1
    14    23    25    1
    15    25    26   ar
    16    26    27   ar
    17    27    28   ar
    18    28    29   ar
    19    29    30    1
    20    29    31   ar
    21    31    32    1
    22     7     8   ar
    23     8     9   ar
    24     9    10   ar
    25    10    11    1
    26    11    12    1
    27    12    13    1
    28    13    14    1
    29    14    15    1
    30    14    16    1
    31    16    17    1
    32    10     1   ar
    33    17    11    1
    34     8     3   ar
    35    31    25   ar
    36    19    21    1
    37    19    22    1
    38    23    24    1
@<TRIPOS>MOLECULE
*****
 35 38 0 0 0
SMALL
GASTEIGER

@<TRIPOS>ATOM
      1 C         139.9601  143.8574  164.4384 C.ar    1  UNL1        0.1532
      2 C         139.7780  143.8363  165.9271 C.ar    1  UNL1        0.0573
      3 C         140.5488  142.8582  166.7633 C.ar    1  UNL1        0.0856
      4 N         140.3666  142.8372  168.2521 N.ar    1  UNL1       -0.2435
      5 C         141.1375  141.8592  169.0882 C.ar    1  UNL1        0.1045
      6 C         142.0905  140.9021  168.4356 C.ar    1  UNL1        0.0856
      7 C         142.2726  140.9231  166.9469 C.ar    1  UNL1        0.0557
      8 C         141.5018  141.9012  166.1107 C.ar    1  UNL1        0.0327
      9 C         141.6839  141.9222  164.6220 C.ar    1  UNL1        0.0203
     10 C         140.9131  142.9003  163.7858 C.ar    1  UNL1        0.0825
     11 N         141.0953  142.9213  162.2970 N.pl3   1  UNL1       -0.3023
     12 C         141.9331  143.9895  161.6590 C.3     1  UNL1        0.1082
     13 C         142.1153  144.0105  160.1703 C.3     1  UNL1        0.0938
     14 N         141.4596  142.9634  159.3195 N.3     1  UNL1       -0.2686
     15 C         141.6418  142.9844  157.8308 C.3     1  UNL1        0.0897
     16 C         140.6218  141.8952  159.9576 C.3     1  UNL1        0.0938
     17 C         140.4396  141.8742  161.4464 C.3     1  UNL1        0.1082
     18 C         142.8613  139.9240  169.2718 C.2     1  UNL1        0.2455
     19 N         143.4154  140.3461  170.6001 N.am    1  UNL1       -0.3252
     20 O         143.0780  138.5237  168.7795 O.2     1  UNL1       -0.2703
     21 H         143.2732  141.2652  170.9232 H       1  UNL1        0.1453
     22 H         143.9214  139.7042  171.1489 H       1  UNL1        0.1453
     23 N         143.2256  139.9661  166.2943 N.pl3   1  UNL1       -0.3117
     24 H         144.1500  139.8901  166.6243 H       1  UNL1        0.1522
     25 C         142.7700  139.1247  165.1390 C.ar    1  UNL1        0.0598
     26 C         141.4987  138.3352  165.2414 C.ar    1  UNL1        0.0155
     27 C         141.0432  137.4939  164.0862 C.ar    1  UNL1        0.0022
     28 C         141.8590  137.4421  162.8284 C.ar    1  UNL1        0.0123
     29 C         143.1303  138.2315  162.7260 C.ar    1  UNL1        0.0694
     30 CL        143.9461  138.1797  161.4683 Cl      1  UNL1       -0.0813
     31 C         143.5858  139.0729  163.8813 C.ar    1  UNL1        0.0815
     32 CL        144.8571  139.8624  163.7789 Cl      1  UNL1       -0.0801
     33 O         139.1893  144.8355  163.6022 O.3     1  UNL1       -0.4742
     34 C         137.4372  143.0010  163.0410 C.3     1  UNL1        0.0512
     35 C         137.8754  144.4350  162.9995 C.3     1  UNL1        0.2056
@<TRIPOS>BOND
     1    34    35    1
     2    35    33    1
     3    33     1    1
     4     1     2   ar
     5     2     3   ar
     6     3     4   ar
     7     4     5   ar
     8     5     6   ar
     9     6    18    1
    10    18    19   am
    11    18    20    2
    12     6     7   ar
    13     7    23    1
    14    23    25    1
    15    25    26   ar
    16    26    27   ar
    17    27    28   ar
    18    28    29   ar
    19    29    30    1
    20    29    31   ar
    21    31    32    1
    22     7     8   ar
    23     8     9   ar
    24     9    10   ar
    25    10    11    1
    26    11    12    1
    27    12    13    1
    28    13    14    1
    29    14    15    1
    30    14    16    1
    31    16    17    1
    32    10     1   ar
    33    17    11    1
    34     8     3   ar
    35    31    25   ar
    36    19    21    1
    37    19    22    1
    38    23    24    1
@<TRIPOS>MOLECULE
*****
 35 38 0 0 0
SMALL
GASTEIGER

@<TRIPOS>ATOM
      1 C         139.3157  138.2512  163.9709 C.ar    1  UNL1        0.1532
      2 C         138.6460  138.2095  165.3125 C.ar    1  UNL1        0.0573
      3 C         139.0839  139.1466  166.3988 C.ar    1  UNL1        0.0856
      4 N         138.4142  139.1048  167.7404 N.ar    1  UNL1       -0.2435
      5 C         138.8521  140.0419  168.8267 C.ar    1  UNL1        0.1045
      6 C         139.9599  141.0207  168.5715 C.ar    1  UNL1        0.0856
      7 C         140.6295  141.0624  167.2299 C.ar    1  UNL1        0.0557
      8 C         140.1916  140.1253  166.1436 C.ar    1  UNL1        0.0327
      9 C         140.8613  140.1670  164.8021 C.ar    1  UNL1        0.0203
     10 C         140.4233  139.2299  163.7158 C.ar    1  UNL1        0.0825
     11 N         141.0931  139.2716  162.3742 N.pl3   1  UNL1       -0.3023
     12 C         141.9266  138.1119  161.9157 C.3     1  UNL1        0.1082
     13 C         142.5963  138.1536  160.5742 C.3     1  UNL1        0.0938
     14 N         142.4325  139.3550  159.6911 N.3     1  UNL1       -0.2686
     15 C         143.1023  139.3967  158.3496 C.3     1  UNL1        0.0897
     16 C         141.5990  140.5147  160.1496 C.3     1  UNL1        0.0938
     17 C         140.9292  140.4730  161.4912 C.3     1  UNL1        0.1082
     18 C         140.3978  141.9577  169.6578 C.2     1  UNL1        0.2455
     19 N         140.4730  141.4779  171.0770 N.am    1  UNL1       -0.3252
     20 O         140.7606  143.3747  169.3249 O.2     1  UNL1       -0.2703
     21 H         140.2349  140.5480  171.2954 H       1  UNL1        0.1453
     22 H         140.7604  142.0930  171.7900 H       1  UNL1        0.1453
     23 N         141.7372  142.0411  166.9747 N.pl3   1  UNL1       -0.3117
     24 H         142.5458  142.0268  167.5362 H       1  UNL1        0.1522
     25 C         141.6128  143.0417  165.8641 C.ar    1  UNL1        0.0598
     26 C         140.2772  143.6447  165.5440 C.ar    1  UNL1        0.0155
     27 C         140.1528  144.6453  164.4335 C.ar    1  UNL1        0.0022
     28 C         141.3641  145.0429  163.6429 C.ar    1  UNL1        0.0123
     29 C         142.6997  144.4398  163.9631 C.ar    1  UNL1        0.0694
     30 CL        143.9110  144.8373  163.1726 Cl      1  UNL1       -0.0813
     31 C         142.8241  143.4392  165.0737 C.ar    1  UNL1        0.0815
     32 CL        144.1597  142.8362  165.3938 Cl      1  UNL1       -0.0801
     33 O         138.8777  137.3141  162.8846 O.3     1  UNL1       -0.4742
     34 C         137.5553  139.2388  161.7459 C.3     1  UNL1        0.0512
     35 C         138.0642  137.8278  161.7339 C.3     1  UNL1        0.2056
@<TRIPOS>BOND
     1    34    35    1
     2    35    33    1
     3    33     1    1
     4     1     2   ar
     5     2     3   ar
     6     3     4   ar
     7     4     5   ar
     8     5     6   ar
     9     6    18    1
    10    18    19   am
    11    18    20    2
    12     6     7   ar
    13     7    23    1
    14    23    25    1
    15    25    26   ar
    16    26    27   ar
    17    27    28   ar
    18    28    29   ar
    19    29    30    1
    20    29    31   ar
    21    31    32    1
    22     7     8   ar
    23     8     9   ar
    24     9    10   ar
    25    10    11    1
    26    11    12    1
    27    12    13    1
    28    13    14    1
    29    14    15    1
    30    14    16    1
    31    16    17    1
    32    10     1   ar
    33    17    11    1
    34     8     3   ar
    35    31    25   ar
    36    19    21    1
    37    19    22    1
    38    23    24    1
@<TRIPOS>MOLECULE
*****
 35 38 0 0 0
SMALL
GASTEIGER

@<TRIPOS>ATOM
      1 C         138.5631  140.2135  165.8038 C.ar    1  UNL1        0.1532
      2 C         137.7148  140.7766  164.7024 C.ar    1  UNL1        0.0573
      3 C         138.2321  141.9039  163.8589 C.ar    1  UNL1        0.0856
      4 N         137.3837  142.4670  162.7574 N.ar    1  UNL1       -0.2435
      5 C         137.9011  143.5944  161.9139 C.ar    1  UNL1        0.1045
      6 C         139.2668  144.1587  162.1720 C.ar    1  UNL1        0.0856
      7 C         140.1151  143.5956  163.2735 C.ar    1  UNL1        0.0557
      8 C         139.5977  142.4682  164.1169 C.ar    1  UNL1        0.0327
      9 C         140.4460  141.9051  165.2184 C.ar    1  UNL1        0.0203
     10 C         139.9287  140.7778  166.0619 C.ar    1  UNL1        0.0825
     11 N         140.7771  140.2147  167.1634 N.pl3   1  UNL1       -0.3023
     12 C         142.0667  139.5215  166.8371 C.3     1  UNL1        0.1082
     13 C         142.9150  138.9584  167.9385 C.3     1  UNL1        0.0938
     14 N         142.4738  139.0886  169.3663 N.3     1  UNL1       -0.2686
     15 C         143.3222  138.5255  170.4677 C.3     1  UNL1        0.0897
     16 C         141.1842  139.7817  169.6926 C.3     1  UNL1        0.0938
     17 C         140.3359  140.3448  168.5911 C.3     1  UNL1        0.1082
     18 C         139.7841  145.2860  161.3285 C.2     1  UNL1        0.2455
     19 N         139.9789  145.0914  159.8541 N.am    1  UNL1       -0.3252
     20 O         140.1066  146.6081  161.9596 O.2     1  UNL1       -0.2703
     21 H         139.7672  144.2237  159.4399 H       1  UNL1        0.1453
     22 H         140.3184  145.8313  159.3005 H       1  UNL1        0.1453
     23 N         141.4807  144.1599  163.5315 N.pl3   1  UNL1       -0.3117
     24 H         141.5873  144.9403  164.1221 H       1  UNL1        0.1522
     25 C         142.6839  143.5351  162.8897 C.ar    1  UNL1        0.0598
     26 C         142.8087  143.5101  161.3951 C.ar    1  UNL1        0.0155
     27 C         144.0119  142.8853  160.7533 C.ar    1  UNL1        0.0022
     28 C         145.0904  142.2855  161.6060 C.ar    1  UNL1        0.0123
     29 C         144.9656  142.3104  163.1006 C.ar    1  UNL1        0.0694
     30 CL        146.0440  141.7106  163.9534 Cl      1  UNL1       -0.0813
     31 C         143.7623  142.9352  163.7424 C.ar    1  UNL1        0.0815
     32 CL        143.6375  142.9602  165.2370 Cl      1  UNL1       -0.0801
     33 O         138.0458  139.0861  166.6473 O.3     1  UNL1       -0.4742
     34 C         139.0560  137.3489  165.0007 C.3     1  UNL1        0.0512
     35 C         138.1645  137.6715  166.1631 C.3     1  UNL1        0.2056
@<TRIPOS>BOND
     1    34    35    1
     2    35    33    1
     3    33     1    1
     4     1     2   ar
     5     2     3   ar
     6     3     4   ar
     7     4     5   ar
     8     5     6   ar
     9     6    18    1
    10    18    19   am
    11    18    20    2
    12     6     7   ar
    13     7    23    1
    14    23    25    1
    15    25    26   ar
    16    26    27   ar
    17    27    28   ar
    18    28    29   ar
    19    29    30    1
    20    29    31   ar
    21    31    32    1
    22     7     8   ar
    23     8     9   ar
    24     9    10   ar
    25    10    11    1
    26    11    12    1
    27    12    13    1
    28    13    14    1
    29    14    15    1
    30    14    16    1
    31    16    17    1
    32    10     1   ar
    33    17    11    1
    34     8     3   ar
    35    31    25   ar
    36    19    21    1
    37    19    22    1
    38    23    24    1
@<TRIPOS>MOLECULE
*****
 35 38 0 0 0
SMALL
GASTEIGER

@<TRIPOS>ATOM
      1 C         138.7521  140.6075  162.5315 C.ar    1  UNL1        0.1532
      2 C         138.3229  140.9741  161.1418 C.ar    1  UNL1        0.0573
      3 C         139.0056  142.0964  160.4175 C.ar    1  UNL1        0.0856
      4 N         138.5764  142.4630  159.0278 N.ar    1  UNL1       -0.2435
      5 C         139.2590  143.5852  158.3035 C.ar    1  UNL1        0.1045
      6 C         140.3710  144.3408  158.9690 C.ar    1  UNL1        0.0856
      7 C         140.8001  143.9741  160.3587 C.ar    1  UNL1        0.0557
      8 C         140.1174  142.8519  161.0830 C.ar    1  UNL1        0.0327
      9 C         140.5466  142.4853  162.4727 C.ar    1  UNL1        0.0203
     10 C         139.8639  141.3631  163.1970 C.ar    1  UNL1        0.0825
     11 N         140.2932  140.9965  164.5868 N.pl3   1  UNL1       -0.3023
     12 C         139.3990  141.2996  165.7523 C.3     1  UNL1        0.1082
     13 C         139.8282  140.9330  167.1421 C.3     1  UNL1        0.0938
     14 N         141.1515  140.2633  167.3663 N.3     1  UNL1       -0.2686
     15 C         141.5807  139.8967  168.7560 C.3     1  UNL1        0.0897
     16 C         142.0457  139.9601  166.2007 C.3     1  UNL1        0.0938
     17 C         141.6165  140.3267  164.8109 C.3     1  UNL1        0.1082
     18 C         141.0536  145.4630  158.2447 C.2     1  UNL1        0.2455
     19 N         140.2399  146.4829  157.5047 N.am    1  UNL1       -0.3252
     20 O         142.5501  145.5653  158.2604 O.2     1  UNL1       -0.2703
     21 H         139.2578  146.4158  157.4944 H       1  UNL1        0.1453
     22 H         140.6880  147.2194  157.0293 H       1  UNL1        0.1453
     23 N         141.9120  144.7297  161.0241 N.pl3   1  UNL1       -0.3117
     24 H         141.9278  145.7135  160.9902 H       1  UNL1        0.1522
     25 C         142.9997  143.9864  161.7413 C.ar    1  UNL1        0.0598
     26 C         143.8304  142.9778  161.0046 C.ar    1  UNL1        0.0155
     27 C         144.9182  142.2345  161.7218 C.ar    1  UNL1        0.0022
     28 C         145.1752  142.4997  163.1756 C.ar    1  UNL1        0.0123
     29 C         144.3445  143.5083  163.9123 C.ar    1  UNL1        0.0694
     30 CL        144.6015  143.7736  165.3661 Cl      1  UNL1       -0.0813
     31 C         143.2568  144.2516  163.1951 C.ar    1  UNL1        0.0815
     32 CL        142.4261  145.2602  163.9317 Cl      1  UNL1       -0.0801
     33 O         138.0694  139.4853  163.2558 O.3     1  UNL1       -0.4742
     34 C         139.0705  137.6008  164.7378 C.3     1  UNL1        0.0512
     35 C         138.7457  138.1523  163.3812 C.3     1  UNL1        0.2056
@<TRIPOS>BOND
     1    34    35    1
     2    35    33    1
     3    33     1    1
     4     1     2   ar
     5     2     3   ar
     6     3     4   ar
     7     4     5   ar
     8     5     6   ar
     9     6    18    1
    10    18    19   am
    11    18    20    2
    12     6     7   ar
    13     7    23    1
    14    23    25    1
    15    25    26   ar
    16    26    27   ar
    17    27    28   ar
    18    28    29   ar
    19    29    30    1
    20    29    31   ar
    21    31    32    1
    22     7     8   ar
    23     8     9   ar
    24     9    10   ar
    25    10    11    1
    26    11    12    1
    27    12    13    1
    28    13    14    1
    29    14    15    1
    30    14    16    1
    31    16    17    1
    32    10     1   ar
    33    17    11    1
    34     8     3   ar
    35    31    25   ar
    36    19    21    1
    37    19    22    1
    38    23    24    1
@<TRIPOS>MOLECULE
*****
 35 38 0 0 0
SMALL
GASTEIGER

@<TRIPOS>ATOM
      1 C         138.2667  140.9571  162.5372 C.ar    1  UNL1        0.1532
      2 C         137.6340  140.2302  163.6865 C.ar    1  UNL1        0.0573
      3 C         138.3530  140.1323  164.9993 C.ar    1  UNL1        0.0856
      4 N         137.7202  139.4054  166.1487 N.ar    1  UNL1       -0.2435
      5 C         138.4393  139.3075  167.4615 C.ar    1  UNL1        0.1045
      6 C         139.7912  139.9366  167.6248 C.ar    1  UNL1        0.0856
      7 C         140.4240  140.6634  166.4754 C.ar    1  UNL1        0.0557
      8 C         139.7049  140.7613  165.1627 C.ar    1  UNL1        0.0327
      9 C         140.3377  141.4882  164.0133 C.ar    1  UNL1        0.0203
     10 C         139.6186  141.5861  162.7005 C.ar    1  UNL1        0.0825
     11 N         140.2515  142.3131  161.5511 N.pl3   1  UNL1       -0.3023
     12 C         141.2938  141.6314  160.7151 C.3     1  UNL1        0.1082
     13 C         141.9267  142.3582  159.5658 C.3     1  UNL1        0.0938
     14 N         141.5172  143.7669  159.2523 N.3     1  UNL1       -0.2686
     15 C         142.1501  144.4937  158.1029 C.3     1  UNL1        0.0897
     16 C         140.4748  144.4485  160.0882 C.3     1  UNL1        0.0938
     17 C         139.8420  143.7216  161.2377 C.3     1  UNL1        0.1082
     18 C         140.5103  139.8387  168.9376 C.2     1  UNL1        0.2455
     19 N         139.7405  139.9209  170.2223 N.am    1  UNL1       -0.3252
     20 O         141.9992  139.6585  168.9655 O.2     1  UNL1       -0.2703
     21 H         138.7633  140.0392  170.2040 H       1  UNL1        0.1453
     22 H         140.2125  139.8567  171.0839 H       1  UNL1        0.1453
     23 N         141.7759  141.2924  166.6388 N.pl3   1  UNL1       -0.3117
     24 H         141.8968  142.0445  167.2625 H       1  UNL1        0.1522
     25 C         142.9436  140.7756  165.8518 C.ar    1  UNL1        0.0598
     26 C         143.2728  139.3123  165.8716 C.ar    1  UNL1        0.0155
     27 C         144.4405  138.7955  165.0847 C.ar    1  UNL1        0.0022
     28 C         145.2791  139.7420  164.2778 C.ar    1  UNL1        0.0123
     29 C         144.9499  141.2053  164.2579 C.ar    1  UNL1        0.0694
     30 CL        145.7885  142.1518  163.4511 Cl      1  UNL1       -0.0813
     31 C         143.7822  141.7221  165.0450 C.ar    1  UNL1        0.0815
     32 CL        143.4530  143.1854  165.0251 Cl      1  UNL1       -0.0801
     33 O         137.5477  141.0550  161.2244 O.3     1  UNL1       -0.4742
     34 C         138.7775  138.9310  160.3722 C.3     1  UNL1        0.0512
     35 C         137.7205  139.9801  160.1926 C.3     1  UNL1        0.2056
@<TRIPOS>BOND
     1    34    35    1
     2    35    33    1
     3    33     1    1
     4     1     2   ar
     5     2     3   ar
     6     3     4   ar
     7     4     5   ar
     8     5     6   ar
     9     6    18    1
    10    18    19   am
    11    18    20    2
    12     6     7   ar
    13     7    23    1
    14    23    25    1
    15    25    26   ar
    16    26    27   ar
    17    27    28   ar
    18    28    29   ar
    19    29    30    1
    20    29    31   ar
    21    31    32    1
    22     7     8   ar
    23     8     9   ar
    24     9    10   ar
    25    10    11    1
    26    11    12    1
    27    12    13    1
    28    13    14    1
    29    14    15    1
    30    14    16    1
    31    16    17    1
    32    10     1   ar
    33    17    11    1
    34     8     3   ar
    35    31    25   ar
    36    19    21    1
    37    19    22    1
    38    23    24    1
@<TRIPOS>MOLECULE
*****
 35 38 0 0 0
SMALL
GASTEIGER

@<TRIPOS>ATOM
      1 C         141.0435  138.1913  163.2021 C.ar    1  UNL1        0.1532
      2 C         140.9871  137.9566  161.7217 C.ar    1  UNL1        0.0573
      3 C         141.8734  138.7444  160.8031 C.ar    1  UNL1        0.0856
      4 N         141.8169  138.5097  159.3226 N.ar    1  UNL1       -0.2435
      5 C         142.7032  139.2975  158.4040 C.ar    1  UNL1        0.1045
      6 C         143.6460  140.3201  158.9659 C.ar    1  UNL1        0.0856
      7 C         143.7024  140.5548  160.4464 C.ar    1  UNL1        0.0557
      8 C         142.8161  139.7669  161.3649 C.ar    1  UNL1        0.0327
      9 C         142.8725  140.0016  162.8454 C.ar    1  UNL1        0.0203
     10 C         141.9862  139.2138  163.7640 C.ar    1  UNL1        0.0825
     11 N         142.0427  139.4485  165.2445 N.pl3   1  UNL1       -0.3023
     12 C         141.1556  140.4811  165.8745 C.3     1  UNL1        0.1082
     13 C         141.2120  140.7158  167.3549 C.3     1  UNL1        0.0938
     14 N         142.1556  139.9180  168.2054 N.3     1  UNL1       -0.2686
     15 C         142.2120  140.1527  169.6858 C.3     1  UNL1        0.0897
     16 C         143.0427  138.8855  167.5754 C.3     1  UNL1        0.0938
     17 C         142.9862  138.6507  166.0949 C.3     1  UNL1        0.1082
     18 C         144.5323  141.1079  158.0474 C.2     1  UNL1        0.2455
     19 N         145.3078  140.4082  156.9708 N.am    1  UNL1       -0.3252
     20 O         144.6431  142.5955  158.2054 O.2     1  UNL1       -0.2703
     21 H         145.2351  139.4319  156.8671 H       1  UNL1        0.1453
     22 H         145.8895  140.9253  156.3679 H       1  UNL1        0.1453
     23 N         144.6451  141.5773  161.0082 N.pl3   1  UNL1       -0.3117
     24 H         145.5992  141.5525  160.7665 H       1  UNL1        0.1522
     25 C         144.1343  142.6375  161.9383 C.ar    1  UNL1        0.0598
     26 C         143.0496  143.5708  161.4882 C.ar    1  UNL1        0.0155
     27 C         142.5388  144.6310  162.4182 C.ar    1  UNL1        0.0022
     28 C         143.1125  144.7580  163.7983 C.ar    1  UNL1        0.0123
     29 C         144.1972  143.8247  164.2484 C.ar    1  UNL1        0.0694
     30 CL        144.7709  143.9516  165.6285 Cl      1  UNL1       -0.0813
     31 C         144.7080  142.7644  163.3183 C.ar    1  UNL1        0.0815
     32 CL        145.7927  141.8312  163.7684 Cl      1  UNL1       -0.0801
     33 O         140.1572  137.4035  164.1207 O.3     1  UNL1       -0.4742
     34 C         138.3811  138.0629  165.8986 C.3     1  UNL1        0.0512
     35 C         138.7888  137.9138  164.4627 C.3     1  UNL1        0.2056
@<TRIPOS>BOND
     1    34    35    1
     2    35    33    1
     3    33     1    1
     4     1     2   ar
     5     2     3   ar
     6     3     4   ar
     7     4     5   ar
     8     5     6   ar
     9     6    18    1
    10    18    19   am
    11    18    20    2
    12     6     7   ar
    13     7    23    1
    14    23    25    1
    15    25    26   ar
    16    26    27   ar
    17    27    28   ar
    18    28    29   ar
    19    29    30    1
    20    29    31   ar
    21    31    32    1
    22     7     8   ar
    23     8     9   ar
    24     9    10   ar
    25    10    11    1
    26    11    12    1
    27    12    13    1
    28    13    14    1
    29    14    15    1
    30    14    16    1
    31    16    17    1
    32    10     1   ar
    33    17    11    1
    34     8     3   ar
    35    31    25   ar
    36    19    21    1
    37    19    22    1
    38    23    24    1
@<TRIPOS>MOLECULE
*****
 35 38 0 0 0
SMALL
GASTEIGER

@<TRIPOS>ATOM
      1 C         141.2176  143.8571  164.3932 C.ar    1  UNL1        0.1532
      2 C         141.0434  143.2664  165.7609 C.ar    1  UNL1        0.0573
      3 C         140.3072  141.9705  165.9300 C.ar    1  UNL1        0.0856
      4 N         140.1330  141.3798  167.2978 N.ar    1  UNL1       -0.2435
      5 C         139.3968  140.0839  167.4669 C.ar    1  UNL1        0.1045
      6 C         138.8347  139.3787  166.2682 C.ar    1  UNL1        0.0856
      7 C         139.0089  139.9694  164.9005 C.ar    1  UNL1        0.0557
      8 C         139.7451  141.2653  164.7314 C.ar    1  UNL1        0.0327
      9 C         139.9193  141.8560  163.3637 C.ar    1  UNL1        0.0203
     10 C         140.6556  143.1519  163.1946 C.ar    1  UNL1        0.0825
     11 N         140.8298  143.7426  161.8268 N.pl3   1  UNL1       -0.3023
     12 C         140.0077  144.9264  161.4109 C.3     1  UNL1        0.1082
     13 C         140.1819  145.5171  160.0431 C.3     1  UNL1        0.0938
     14 N         141.1781  144.9241  159.0913 N.3     1  UNL1       -0.2686
     15 C         141.3522  145.5148  157.7236 C.3     1  UNL1        0.0897
     16 C         142.0001  143.7403  159.5072 C.3     1  UNL1        0.0938
     17 C         141.8259  143.1496  160.8750 C.3     1  UNL1        0.1082
     18 C         138.0985  138.0828  166.4372 C.2     1  UNL1        0.2455
     19 N         137.1178  137.9183  167.5603 N.am    1  UNL1       -0.3252
     20 O         138.3429  136.9513  165.4832 O.2     1  UNL1       -0.2703
     21 H         136.9574  138.6609  168.1864 H       1  UNL1        0.1453
     22 H         136.6346  137.0678  167.6712 H       1  UNL1        0.1453
     23 N         138.4469  139.2642  163.7018 N.pl3   1  UNL1       -0.3117
     24 H         137.4840  139.0645  163.6549 H       1  UNL1        0.1522
     25 C         139.3519  138.8634  162.5747 C.ar    1  UNL1        0.0598
     26 C         140.6814  138.2338  162.8680 C.ar    1  UNL1        0.0155
     27 C         141.5864  137.8330  161.7410 C.ar    1  UNL1        0.0022
     28 C         141.1619  138.0616  160.3206 C.ar    1  UNL1        0.0123
     29 C         139.8324  138.6911  160.0273 C.ar    1  UNL1        0.0694
     30 CL        139.4078  138.9198  158.6069 Cl      1  UNL1       -0.0813
     31 C         138.9273  139.0920  161.1544 C.ar    1  UNL1        0.0815
     32 CL        137.5978  139.7215  160.8610 Cl      1  UNL1       -0.0801
     33 O         141.9539  145.1530  164.2242 O.3     1  UNL1       -0.4742
     34 C         144.1525  143.8531  163.7486 C.3     1  UNL1        0.0512
     35 C         143.4348  145.1487  163.9857 C.3     1  UNL1        0.2056
@<TRIPOS>BOND
     1    34    35    1
     2    35    33    1
     3    33     1    1
     4     1     2   ar
     5     2     3   ar
     6     3     4   ar
     7     4     5   ar
     8     5     6   ar
     9     6    18    1
    10    18    19   am
    11    18    20    2
    12     6     7   ar
    13     7    23    1
    14    23    25    1
    15    25    26   ar
    16    26    27   ar
    17    27    28   ar
    18    28    29   ar
    19    29    30    1
    20    29    31   ar
    21    31    32    1
    22     7     8   ar
    23     8     9   ar
    24     9    10   ar
    25    10    11    1
    26    11    12    1
    27    12    13    1
    28    13    14    1
    29    14    15    1
    30    14    16    1
    31    16    17    1
    32    10     1   ar
    33    17    11    1
    34     8     3   ar
    35    31    25   ar
    36    19    21    1
    37    19    22    1
    38    23    24    1
