@<TRIPOS>MOLECULE
*****
 33 37 0 0 0
SMALL
GASTEIGER

@<TRIPOS>ATOM
      1 C         144.3513  140.8401  162.2639 C.3     1  UNL1        0.0230
      2 C         143.7226  140.8895  160.9029 C.3     1  UNL1        0.0233
      3 C         143.1252  140.6269  159.5523 C.3     1  UNL1        0.0938
      4 N         143.1431  139.1455  159.3175 N.am    1  UNL1       -0.2761
      5 C         142.6407  138.4408  158.0924 C.2     1  UNL1        0.2492
      6 O         142.0543  139.2309  156.9601 O.2     1  UNL1       -0.2699
      7 C         143.7515  138.4924  160.5231 C.3     1  UNL1        0.0938
      8 C         144.1097  139.5703  161.5029 C.3     1  UNL1        0.0233
      9 C         142.7247  136.9461  157.9994 C.2     1  UNL1        0.0579
     10 C         142.6799  136.2743  156.6589 C.2     1  UNL1        0.0047
     11 C         142.7639  134.7796  156.5659 C.ar    1  UNL1        0.0018
     12 C         143.8342  134.0406  157.3134 C.ar    1  UNL1        0.0114
     13 C         143.9182  132.5458  157.2204 C.ar    1  UNL1        0.0585
     14 CL        144.9883  131.8068  157.9678 Cl      1  UNL1       -0.0822
     15 C         142.9320  131.7900  156.3800 C.ar    1  UNL1        0.0228
     16 C         141.8618  132.5290  155.6326 C.ar    1  UNL1        0.0585
     17 CL        140.8756  131.7732  154.7921 Cl      1  UNL1       -0.0822
     18 C         141.7778  134.0238  155.7256 C.ar    1  UNL1        0.0114
     19 C         144.8537  141.5448  163.4891 C.3     1  UNL1        0.0898
     20 O         144.0690  139.2938  165.3105 O.2     1  UNL1       -0.2702
     21 C         143.5345  140.6746  165.5513 C.2     1  UNL1        0.2456
     22 N         143.9268  141.8000  164.6406 N.am    1  UNL1       -0.3009
     23 H         143.5760  142.7062  164.7986 H       1  UNL1        0.1497
     24 C         142.6077  140.9298  166.7028 C.2     1  UNL1        0.0525
     25 C         142.8297  142.1143  167.5959 C.2     1  UNL1       -0.0153
     26 C         141.9029  142.3695  168.7474 C.3     1  UNL1        0.0726
     27 C         140.7542  141.4402  169.0057 C.2     1  UNL1        0.0933
     28 N         139.6830  141.4361  170.0559 N.am    1  UNL1       -0.1431
     29 C         138.7991  140.2490  169.8118 C.2     1  UNL1        0.4298
     30 O         137.6008  139.8598  170.6258 O.2     1  UNL1       -0.2238
     31 O         139.3240  139.5195  168.6108 O.3     1  UNL1       -0.4079
     32 C         140.5322  140.2557  168.1126 C.2     1  UNL1        0.1618
     33 C         141.4590  140.0005  166.9612 C.2     1  UNL1        0.0429
@<TRIPOS>BOND
     1    20    21    2
     2    21    22   am
     3    22    19    1
     4     1    19    1
     5     1     2    1
     6     2     3    1
     7     3     4    1
     8     4     5   am
     9     5     6    2
    10     5     9    1
    11     9    10    2
    12    10    11    1
    13    11    12   ar
    14    12    13   ar
    15    13    14    1
    16    13    15   ar
    17    15    16   ar
    18    16    17    1
    19    16    18   ar
    20     4     7    1
    21     8     7    1
    22    21    24    1
    23    24    25    2
    24    25    26    1
    25    26    27    1
    26    27    28    2
    27    28    29    1
    28    29    30    2
    29    29    31    1
    30    31    32    1
    31    32    33    2
    32     8     1    1
    33    33    24    1
    34     8     2    1
    35    32    27    1
    36    18    11   ar
    37    22    23    1
@<TRIPOS>MOLECULE
*****
 33 37 0 0 0
SMALL
GASTEIGER

@<TRIPOS>ATOM
      1 C         144.1976  140.1247  161.8205 C.3     1  UNL1        0.0230
      2 C         143.7573  140.3020  160.3976 C.3     1  UNL1        0.0233
      3 C         143.2823  140.1676  158.9811 C.3     1  UNL1        0.0938
      4 N         143.0240  138.7142  158.7147 N.am    1  UNL1       -0.2761
      5 C         142.5359  138.1278  157.4233 C.2     1  UNL1        0.2492
      6 O         142.2614  139.0213  156.2501 O.2     1  UNL1       -0.2699
      7 C         143.3393  137.9503  159.9664 C.3     1  UNL1        0.0938
      8 C         143.7926  138.9316  161.0065 C.3     1  UNL1        0.0233
      9 C         142.3225  136.6478  157.3049 C.2     1  UNL1        0.0579
     10 C         143.3751  135.7864  156.6723 C.2     1  UNL1        0.0047
     11 C         143.1617  134.3064  156.5540 C.ar    1  UNL1        0.0018
     12 C         142.0615  133.7745  155.6839 C.ar    1  UNL1        0.0114
     13 C         141.8481  132.2945  155.5656 C.ar    1  UNL1        0.0585
     14 CL        140.7480  131.7626  154.6956 Cl      1  UNL1       -0.0822
     15 C         142.7348  131.3464  156.3173 C.ar    1  UNL1        0.0228
     16 C         143.8348  131.8783  157.1872 C.ar    1  UNL1        0.0585
     17 CL        144.7215  130.9301  157.9389 Cl      1  UNL1       -0.0822
     18 C         144.0483  133.3583  157.3056 C.ar    1  UNL1        0.0114
     19 C         144.6856  140.7111  163.1119 C.3     1  UNL1        0.0898
     20 O         144.1868  143.4188  164.3035 O.2     1  UNL1       -0.2702
     21 C         143.4959  142.2126  164.8671 C.2     1  UNL1        0.2456
     22 N         143.7453  140.8587  164.2713 N.am    1  UNL1       -0.3009
     23 H         143.2919  140.0670  164.6413 H       1  UNL1        0.1497
     24 C         142.5557  142.3602  166.0265 C.2     1  UNL1        0.0525
     25 C         141.1562  142.8498  165.7995 C.2     1  UNL1       -0.0153
     26 C         140.2160  142.9974  166.9589 C.3     1  UNL1        0.0726
     27 C         140.6753  142.6553  168.3453 C.2     1  UNL1        0.0933
     28 N         139.9787  142.6999  169.6731 N.am    1  UNL1       -0.1431
     29 C         140.9478  142.2377  170.7206 C.2     1  UNL1        0.4298
     30 O         140.6702  142.1254  172.1904 O.2     1  UNL1       -0.2238
     31 O         142.2433  141.9076  170.0403 O.3     1  UNL1       -0.4079
     32 C         142.0749  142.1657  168.5723 C.2     1  UNL1        0.1618
     33 C         143.0150  142.0181  167.4129 C.2     1  UNL1        0.0429
@<TRIPOS>BOND
     1    20    21    2
     2    21    22   am
     3    22    19    1
     4     1    19    1
     5     1     2    1
     6     2     3    1
     7     3     4    1
     8     4     5   am
     9     5     6    2
    10     5     9    1
    11     9    10    2
    12    10    11    1
    13    11    12   ar
    14    12    13   ar
    15    13    14    1
    16    13    15   ar
    17    15    16   ar
    18    16    17    1
    19    16    18   ar
    20     4     7    1
    21     8     7    1
    22    21    24    1
    23    24    25    2
    24    25    26    1
    25    26    27    1
    26    27    28    2
    27    28    29    1
    28    29    30    2
    29    29    31    1
    30    31    32    1
    31    32    33    2
    32     8     1    1
    33    33    24    1
    34     8     2    1
    35    32    27    1
    36    18    11   ar
    37    22    23    1
@<TRIPOS>MOLECULE
*****
 33 37 0 0 0
SMALL
GASTEIGER

@<TRIPOS>ATOM
      1 C         138.6392  138.6457  163.5963 C.3     1  UNL1        0.0230
      2 C         138.1243  139.3059  162.3517 C.3     1  UNL1        0.0233
      3 C         137.8372  139.8032  160.9660 C.3     1  UNL1        0.0938
      4 N         138.8192  139.1621  160.0307 N.am    1  UNL1       -0.2761
      5 C         138.8940  139.3768  158.5481 C.2     1  UNL1        0.2492
      6 O         137.9274  140.3056  157.8750 O.2     1  UNL1       -0.2699
      7 C         139.7131  138.2685  160.8384 C.3     1  UNL1        0.0938
      8 C         139.2836  138.3574  162.2729 C.3     1  UNL1        0.0233
      9 C         139.9355  138.6627  157.7384 C.2     1  UNL1        0.0579
     10 C         141.3452  139.1746  157.7109 C.2     1  UNL1        0.0047
     11 C         142.3867  138.4606  156.9013 C.ar    1  UNL1        0.0018
     12 C         142.5504  136.9752  157.0323 C.ar    1  UNL1        0.0114
     13 C         143.5919  136.2612  156.2227 C.ar    1  UNL1        0.0585
     14 CL        143.7556  134.7760  156.3536 Cl      1  UNL1       -0.0822
     15 C         144.4697  137.0325  155.2821 C.ar    1  UNL1        0.0228
     16 C         144.3060  138.5177  155.1511 C.ar    1  UNL1        0.0585
     17 CL        145.1837  139.2890  154.2105 Cl      1  UNL1       -0.0822
     18 C         143.2645  139.2318  155.9607 C.ar    1  UNL1        0.0114
     19 C         138.5643  138.4310  165.0789 C.3     1  UNL1        0.0898
     20 O         137.7539  138.7645  167.9481 O.2     1  UNL1       -0.2702
     21 C         138.9933  139.4365  167.4359 C.2     1  UNL1        0.2456
     22 N         139.3985  139.2697  166.0013 N.am    1  UNL1       -0.3009
     23 H         140.2120  139.7107  165.6651 H       1  UNL1        0.1497
     24 C         139.8275  140.2752  168.3583 C.2     1  UNL1        0.0525
     25 C         139.2488  140.7716  169.6500 C.2     1  UNL1       -0.0153
     26 C         140.0830  141.6103  170.5723 C.3     1  UNL1        0.0726
     27 C         141.4959  141.9525  170.2029 C.2     1  UNL1        0.0933
     28 N         142.5510  142.7544  170.9057 N.am    1  UNL1       -0.1431
     29 C         143.7818  142.7535  170.0483 C.2     1  UNL1        0.4298
     30 O         145.0792  143.4353  170.3675 O.2     1  UNL1       -0.2238
     31 O         143.4874  141.9511  168.8156 O.3     1  UNL1       -0.4079
     32 C         142.0747  141.4561  168.9112 C.2     1  UNL1        0.1618
     33 C         141.2405  140.6174  167.9889 C.2     1  UNL1        0.0429
@<TRIPOS>BOND
     1    20    21    2
     2    21    22   am
     3    22    19    1
     4     1    19    1
     5     1     2    1
     6     2     3    1
     7     3     4    1
     8     4     5   am
     9     5     6    2
    10     5     9    1
    11     9    10    2
    12    10    11    1
    13    11    12   ar
    14    12    13   ar
    15    13    14    1
    16    13    15   ar
    17    15    16   ar
    18    16    17    1
    19    16    18   ar
    20     4     7    1
    21     8     7    1
    22    21    24    1
    23    24    25    2
    24    25    26    1
    25    26    27    1
    26    27    28    2
    27    28    29    1
    28    29    30    2
    29    29    31    1
    30    31    32    1
    31    32    33    2
    32     8     1    1
    33    33    24    1
    34     8     2    1
    35    32    27    1
    36    18    11   ar
    37    22    23    1
@<TRIPOS>MOLECULE
*****
 33 37 0 0 0
SMALL
GASTEIGER

@<TRIPOS>ATOM
      1 C         144.1023  139.4204  162.2530 C.3     1  UNL1        0.0230
      2 C         143.6832  139.7818  160.8589 C.3     1  UNL1        0.0233
      3 C         143.2226  139.8341  159.4323 C.3     1  UNL1        0.0938
      4 N         142.9370  138.4309  158.9857 N.am    1  UNL1       -0.2761
      5 C         142.4525  138.0194  157.6270 C.2     1  UNL1        0.2492
      6 O         142.2111  139.0569  156.5709 O.2     1  UNL1       -0.2699
      7 C         143.2211  137.5114  160.1362 C.3     1  UNL1        0.0938
      8 C         143.6822  138.3464  161.2939 C.3     1  UNL1        0.0233
      9 C         142.2094  136.5705  157.3245 C.2     1  UNL1        0.0579
     10 C         143.3690  135.6492  157.0866 C.2     1  UNL1        0.0047
     11 C         143.1259  134.2002  156.7840 C.ar    1  UNL1        0.0018
     12 C         143.9390  133.1438  157.4718 C.ar    1  UNL1        0.0114
     13 C         143.6958  131.6949  157.1692 C.ar    1  UNL1        0.0585
     14 CL        144.5088  130.6384  157.8569 Cl      1  UNL1       -0.0822
     15 C         142.6397  131.3024  156.1790 C.ar    1  UNL1        0.0228
     16 C         141.8267  132.3588  155.4913 C.ar    1  UNL1        0.0585
     17 CL        140.7706  131.9664  154.5010 Cl      1  UNL1       -0.0822
     18 C         142.0698  133.8078  155.7938 C.ar    1  UNL1        0.0114
     19 C         144.5868  139.8319  163.6116 C.3     1  UNL1        0.0898
     20 O         143.8819  138.0231  165.8989 O.2     1  UNL1       -0.2702
     21 C         143.2537  139.3813  165.7956 C.2     1  UNL1        0.2456
     22 N         143.6061  140.2857  164.6520 N.am    1  UNL1       -0.3009
     23 H         143.1938  141.1771  164.5843 H       1  UNL1        0.1497
     24 C         142.2729  139.8351  166.8360 C.2     1  UNL1        0.0525
     25 C         140.8000  139.6924  166.5911 C.2     1  UNL1       -0.0153
     26 C         139.8194  140.1462  167.6315 C.3     1  UNL1        0.0726
     27 C         140.3117  140.7426  168.9168 C.2     1  UNL1        0.0933
     28 N         139.5883  141.2752  170.1181 N.am    1  UNL1       -0.1431
     29 C         140.6142  141.7470  171.1054 C.2     1  UNL1        0.4298
     30 O         140.3323  142.3534  172.4482 O.2     1  UNL1       -0.2238
     31 O         141.9716  141.5060  170.5143 O.3     1  UNL1       -0.4079
     32 C         141.7846  140.8853  169.1616 C.2     1  UNL1        0.1618
     33 C         142.7653  140.4315  168.1213 C.2     1  UNL1        0.0429
@<TRIPOS>BOND
     1    20    21    2
     2    21    22   am
     3    22    19    1
     4     1    19    1
     5     1     2    1
     6     2     3    1
     7     3     4    1
     8     4     5   am
     9     5     6    2
    10     5     9    1
    11     9    10    2
    12    10    11    1
    13    11    12   ar
    14    12    13   ar
    15    13    14    1
    16    13    15   ar
    17    15    16   ar
    18    16    17    1
    19    16    18   ar
    20     4     7    1
    21     8     7    1
    22    21    24    1
    23    24    25    2
    24    25    26    1
    25    26    27    1
    26    27    28    2
    27    28    29    1
    28    29    30    2
    29    29    31    1
    30    31    32    1
    31    32    33    2
    32     8     1    1
    33    33    24    1
    34     8     2    1
    35    32    27    1
    36    18    11   ar
    37    22    23    1
@<TRIPOS>MOLECULE
*****
 33 37 0 0 0
SMALL
GASTEIGER

@<TRIPOS>ATOM
      1 C         140.5069  144.9760  158.3191 C.3     1  UNL1        0.0230
      2 C         140.2505  145.4821  159.7077 C.3     1  UNL1        0.0233
      3 C         140.0210  145.6860  161.1759 C.3     1  UNL1        0.0938
      4 N         140.0954  144.3466  161.8472 N.am    1  UNL1       -0.2761
      5 C         139.9243  144.0849  163.3142 C.2     1  UNL1        0.2492
      6 O         139.6514  145.2232  164.2523 O.2     1  UNL1       -0.2699
      7 C         140.3709  143.3149  160.7938 C.3     1  UNL1        0.0938
      8 C         140.4668  144.0167  159.4715 C.3     1  UNL1        0.0233
      9 C         140.0261  142.6850  163.8432 C.2     1  UNL1        0.0579
     10 C         138.8504  141.7586  163.7445 C.2     1  UNL1        0.0047
     11 C         138.9521  140.3587  164.2734 C.ar    1  UNL1        0.0018
     12 C         139.8920  139.3811  163.6323 C.ar    1  UNL1        0.0114
     13 C         139.9938  137.9812  164.1612 C.ar    1  UNL1        0.0585
     14 CL        140.9336  137.0036  163.5201 Cl      1  UNL1       -0.0822
     15 C         139.1556  137.5588  165.3314 C.ar    1  UNL1        0.0228
     16 C         138.2158  138.5364  165.9725 C.ar    1  UNL1        0.0585
     17 CL        137.3776  138.1140  167.1427 Cl      1  UNL1       -0.0822
     18 C         138.1140  139.9363  165.4435 C.ar    1  UNL1        0.0114
     19 C         140.6779  145.2378  156.8521 C.3     1  UNL1        0.0898
     20 O         138.4023  146.0501  155.0739 O.2     1  UNL1       -0.2702
     21 C         139.4628  147.0467  155.4374 C.2     1  UNL1        0.2456
     22 N         140.6006  146.6406  156.3265 N.am    1  UNL1       -0.3009
     23 H         141.2966  147.2947  156.5650 H       1  UNL1        0.1497
     24 C         139.3855  148.4495  154.9118 C.2     1  UNL1        0.0525
     25 C         139.9065  148.7667  153.5414 C.2     1  UNL1       -0.0153
     26 C         139.8291  150.1695  153.0158 C.3     1  UNL1        0.0726
     27 C         139.2307  151.2550  153.8606 C.2     1  UNL1        0.0933
     28 N         139.0207  152.7194  153.6123 N.am    1  UNL1       -0.1431
     29 C         138.3699  153.3071  154.8293 C.2     1  UNL1        0.4298
     30 O         137.9798  154.7438  155.0136 O.2     1  UNL1       -0.2238
     31 O         138.1778  152.2060  155.8296 O.3     1  UNL1       -0.4079
     32 C         138.7098  150.9377  155.2310 C.2     1  UNL1        0.1618
     33 C         138.7871  149.5350  155.7565 C.2     1  UNL1        0.0429
@<TRIPOS>BOND
     1    20    21    2
     2    21    22   am
     3    22    19    1
     4     1    19    1
     5     1     2    1
     6     2     3    1
     7     3     4    1
     8     4     5   am
     9     5     6    2
    10     5     9    1
    11     9    10    2
    12    10    11    1
    13    11    12   ar
    14    12    13   ar
    15    13    14    1
    16    13    15   ar
    17    15    16   ar
    18    16    17    1
    19    16    18   ar
    20     4     7    1
    21     8     7    1
    22    21    24    1
    23    24    25    2
    24    25    26    1
    25    26    27    1
    26    27    28    2
    27    28    29    1
    28    29    30    2
    29    29    31    1
    30    31    32    1
    31    32    33    2
    32     8     1    1
    33    33    24    1
    34     8     2    1
    35    32    27    1
    36    18    11   ar
    37    22    23    1
@<TRIPOS>MOLECULE
*****
 33 37 0 0 0
SMALL
GASTEIGER

@<TRIPOS>ATOM
      1 C         140.6333  139.2560  157.6122 C.3     1  UNL1        0.0230
      2 C         139.8820  140.4517  158.1180 C.3     1  UNL1        0.0233
      3 C         139.1358  141.4938  158.8973 C.3     1  UNL1        0.0938
      4 N         139.0031  141.0091  160.3106 N.am    1  UNL1       -0.2761
      5 C         138.3252  141.7381  161.4327 C.2     1  UNL1        0.2492
      6 O         137.7018  143.0801  161.1868 O.2     1  UNL1       -0.2699
      7 C         139.6673  139.6675  160.4049 C.3     1  UNL1        0.0938
      8 C         140.2105  139.3230  159.0497 C.3     1  UNL1        0.0233
      9 C         138.2707  141.1251  162.8006 C.2     1  UNL1        0.0579
     10 C         139.2212  141.5840  163.8665 C.2     1  UNL1        0.0047
     11 C         139.1667  140.9711  165.2345 C.ar    1  UNL1        0.0018
     12 C         139.9851  141.5516  166.3496 C.ar    1  UNL1        0.0114
     13 C         139.9306  140.9386  167.7176 C.ar    1  UNL1        0.0585
     14 CL        140.7488  141.5190  168.8326 Cl      1  UNL1       -0.0822
     15 C         139.0578  139.7451  167.9704 C.ar    1  UNL1        0.0228
     16 C         138.2395  139.1646  166.8553 C.ar    1  UNL1        0.0585
     17 CL        137.3667  137.9711  167.1081 Cl      1  UNL1       -0.0822
     18 C         138.2940  139.7776  165.4873 C.ar    1  UNL1        0.0114
     19 C         141.3112  138.5271  156.4901 C.3     1  UNL1        0.0898
     20 O         143.9496  137.1128  156.2942 O.2     1  UNL1       -0.2702
     21 C         142.6796  136.3207  156.3933 C.2     1  UNL1        0.2456
     22 N         141.3604  137.0278  156.4912 N.am    1  UNL1       -0.3009
     23 H         140.5269  136.5080  156.5563 H       1  UNL1        0.1497
     24 C         142.7289  134.8215  156.3944 C.2     1  UNL1        0.0525
     25 C         141.7538  134.0384  155.5663 C.2     1  UNL1       -0.0153
     26 C         141.8031  132.5392  155.5675 C.3     1  UNL1        0.0726
     27 C         142.8276  131.8232  156.3968 C.2     1  UNL1        0.0933
     28 N         143.1158  130.3647  156.5968 N.am    1  UNL1       -0.1431
     29 C         144.2691  130.2465  157.5486 C.2     1  UNL1        0.4298
     30 O         144.8891  128.9675  158.0281 O.2     1  UNL1       -0.2238
     31 O         144.6936  131.6318  157.9368 O.3     1  UNL1       -0.4079
     32 C         143.8027  132.6063  157.2249 C.2     1  UNL1        0.1618
     33 C         143.7534  134.1054  157.2237 C.2     1  UNL1        0.0429
@<TRIPOS>BOND
     1    20    21    2
     2    21    22   am
     3    22    19    1
     4     1    19    1
     5     1     2    1
     6     2     3    1
     7     3     4    1
     8     4     5   am
     9     5     6    2
    10     5     9    1
    11     9    10    2
    12    10    11    1
    13    11    12   ar
    14    12    13   ar
    15    13    14    1
    16    13    15   ar
    17    15    16   ar
    18    16    17    1
    19    16    18   ar
    20     4     7    1
    21     8     7    1
    22    21    24    1
    23    24    25    2
    24    25    26    1
    25    26    27    1
    26    27    28    2
    27    28    29    1
    28    29    30    2
    29    29    31    1
    30    31    32    1
    31    32    33    2
    32     8     1    1
    33    33    24    1
    34     8     2    1
    35    32    27    1
    36    18    11   ar
    37    22    23    1
@<TRIPOS>MOLECULE
*****
 33 37 0 0 0
SMALL
GASTEIGER

@<TRIPOS>ATOM
      1 C         142.3715  138.2528  158.9304 C.3     1  UNL1        0.0230
      2 C         143.4300  138.6374  159.9212 C.3     1  UNL1        0.0233
      3 C         144.2570  138.9919  161.1214 C.3     1  UNL1        0.0938
      4 N         143.3711  138.9277  162.3302 N.am    1  UNL1       -0.2761
      5 C         143.7868  139.2083  163.7438 C.2     1  UNL1        0.2492
      6 O         145.2045  139.5940  164.0462 O.2     1  UNL1       -0.2699
      7 C         141.9966  138.5336  161.8771 C.3     1  UNL1        0.0938
      8 C         142.0330  138.3542  160.3882 C.3     1  UNL1        0.0233
      9 C         142.7847  139.1033  164.8551 C.2     1  UNL1        0.0579
     10 C         142.0314  140.3206  165.3032 C.2     1  UNL1        0.0047
     11 C         141.0294  140.2156  166.4144 C.ar    1  UNL1        0.0018
     12 C         139.7635  139.4368  166.2117 C.ar    1  UNL1        0.0114
     13 C         138.7614  139.3319  167.3230 C.ar    1  UNL1        0.0585
     14 CL        137.4956  138.5531  167.1204 Cl      1  UNL1       -0.0822
     15 C         139.0253  140.0057  168.6370 C.ar    1  UNL1        0.0228
     16 C         140.2912  140.7844  168.8396 C.ar    1  UNL1        0.0585
     17 CL        140.5551  141.4582  170.1536 Cl      1  UNL1       -0.0822
     18 C         141.2932  140.8894  167.7283 C.ar    1  UNL1        0.0114
     19 C         141.9559  137.9721  157.5168 C.3     1  UNL1        0.0898
     20 O         144.3396  137.0988  155.9182 O.2     1  UNL1       -0.2702
     21 C         143.2181  136.1374  156.1786 C.2     1  UNL1        0.2456
     22 N         142.0262  136.5740  156.9778 N.am    1  UNL1       -0.3009
     23 H         141.2901  135.9430  157.1487 H       1  UNL1        0.1497
     24 C         143.2884  134.7393  155.6396 C.2     1  UNL1        0.0525
     25 C         142.4922  134.3626  154.4255 C.2     1  UNL1       -0.0153
     26 C         142.5626  132.9645  153.8866 C.3     1  UNL1        0.0726
     27 C         143.4291  131.9432  154.5618 C.2     1  UNL1        0.0933
     28 N         143.6975  130.4982  154.2614 N.am    1  UNL1       -0.1431
     29 C         144.6596  129.9820  155.2899 C.2     1  UNL1        0.4298
     30 O         145.2006  128.5851  155.3686 O.2     1  UNL1       -0.2238
     31 O         144.9858  131.1078  156.2259 O.3     1  UNL1       -0.4079
     32 C         144.2253  132.3199  155.7759 C.2     1  UNL1        0.1618
     33 C         144.1550  133.7179  156.3148 C.2     1  UNL1        0.0429
@<TRIPOS>BOND
     1    20    21    2
     2    21    22   am
     3    22    19    1
     4     1    19    1
     5     1     2    1
     6     2     3    1
     7     3     4    1
     8     4     5   am
     9     5     6    2
    10     5     9    1
    11     9    10    2
    12    10    11    1
    13    11    12   ar
    14    12    13   ar
    15    13    14    1
    16    13    15   ar
    17    15    16   ar
    18    16    17    1
    19    16    18   ar
    20     4     7    1
    21     8     7    1
    22    21    24    1
    23    24    25    2
    24    25    26    1
    25    26    27    1
    26    27    28    2
    27    28    29    1
    28    29    30    2
    29    29    31    1
    30    31    32    1
    31    32    33    2
    32     8     1    1
    33    33    24    1
    34     8     2    1
    35    32    27    1
    36    18    11   ar
    37    22    23    1
@<TRIPOS>MOLECULE
*****
 33 37 0 0 0
SMALL
GASTEIGER

@<TRIPOS>ATOM
      1 C         139.8255  138.6368  157.1078 C.3     1  UNL1        0.0230
      2 C         139.2541  139.9022  157.6755 C.3     1  UNL1        0.0233
      3 C         138.7049  141.0160  158.5168 C.3     1  UNL1        0.0938
      4 N         138.6915  140.5554  159.9443 N.am    1  UNL1       -0.2761
      5 C         138.2199  141.3532  161.1237 C.2     1  UNL1        0.2492
      6 O         137.7018  142.7472  160.9275 O.2     1  UNL1       -0.2699
      7 C         139.2323  139.1569  159.9852 C.3     1  UNL1        0.0938
      8 C         139.5801  138.7532  158.5830 C.3     1  UNL1        0.0233
      9 C         138.2664  140.7570  162.4994 C.2     1  UNL1        0.0579
     10 C         138.9692  141.4831  163.6081 C.2     1  UNL1        0.0047
     11 C         139.0157  140.8870  164.9837 C.ar    1  UNL1        0.0018
     12 C         138.2257  139.6496  165.2920 C.ar    1  UNL1        0.0114
     13 C         138.2722  139.0535  166.6677 C.ar    1  UNL1        0.0585
     14 CL        137.4823  137.8162  166.9760 Cl      1  UNL1       -0.0822
     15 C         139.1087  139.6947  167.7351 C.ar    1  UNL1        0.0228
     16 C         139.8986  140.9320  167.4267 C.ar    1  UNL1        0.0585
     17 CL        140.7351  141.5732  168.4941 Cl      1  UNL1       -0.0822
     18 C         139.8521  141.5281  166.0511 C.ar    1  UNL1        0.0114
     19 C         140.2970  137.8390  155.9284 C.3     1  UNL1        0.0898
     20 O         143.1870  137.0942  156.2340 O.2     1  UNL1       -0.2702
     21 C         142.1316  136.0286  156.2558 C.2     1  UNL1        0.2456
     22 N         140.6866  136.4009  156.1030 N.am    1  UNL1       -0.3009
     23 H         139.9939  135.7015  156.1172 H       1  UNL1        0.1497
     24 C         142.5212  134.5906  156.4304 C.2     1  UNL1        0.0525
     25 C         143.6713  134.2281  157.3224 C.2     1  UNL1       -0.0153
     26 C         144.0608  132.7902  157.4969 C.3     1  UNL1        0.0726
     27 C         143.3002  131.7147  156.7794 C.2     1  UNL1        0.0933
     28 N         143.4519  130.2225  156.7570 N.am    1  UNL1       -0.1431
     29 C         142.3955  129.6628  155.8511 C.2     1  UNL1        0.4298
     30 O         142.1812  128.2116  155.5376 O.2     1  UNL1       -0.2238
     31 O         141.5909  130.8090  155.3137 O.3     1  UNL1       -0.4079
     32 C         142.1501  132.0771  155.8874 C.2     1  UNL1        0.1618
     33 C         141.7605  133.5151  155.7129 C.2     1  UNL1        0.0429
@<TRIPOS>BOND
     1    20    21    2
     2    21    22   am
     3    22    19    1
     4     1    19    1
     5     1     2    1
     6     2     3    1
     7     3     4    1
     8     4     5   am
     9     5     6    2
    10     5     9    1
    11     9    10    2
    12    10    11    1
    13    11    12   ar
    14    12    13   ar
    15    13    14    1
    16    13    15   ar
    17    15    16   ar
    18    16    17    1
    19    16    18   ar
    20     4     7    1
    21     8     7    1
    22    21    24    1
    23    24    25    2
    24    25    26    1
    25    26    27    1
    26    27    28    2
    27    28    29    1
    28    29    30    2
    29    29    31    1
    30    31    32    1
    31    32    33    2
    32     8     1    1
    33    33    24    1
    34     8     2    1
    35    32    27    1
    36    18    11   ar
    37    22    23    1
@<TRIPOS>MOLECULE
*****
 33 37 0 0 0
SMALL
GASTEIGER

@<TRIPOS>ATOM
      1 C         139.0189  140.3940  160.7393 C.3     1  UNL1        0.0230
      2 C         140.3350  140.4590  160.0226 C.3     1  UNL1        0.0233
      3 C         141.5637  140.2463  159.1890 C.3     1  UNL1        0.0938
      4 N         141.4213  138.9320  158.4801 N.am    1  UNL1       -0.2761
      5 C         142.4202  138.3241  157.5407 C.2     1  UNL1        0.2492
      6 O         143.7008  139.0445  157.2387 O.2     1  UNL1       -0.2699
      7 C         140.1044  138.3324  158.8756 C.3     1  UNL1        0.0938
      8 C         139.4331  139.2762  159.8289 C.3     1  UNL1        0.0233
      9 C         142.1386  136.9958  156.9033 C.2     1  UNL1        0.0579
     10 C         143.2705  136.0720  156.5634 C.2     1  UNL1        0.0047
     11 C         142.9889  134.7437  155.9260 C.ar    1  UNL1        0.0018
     12 C         143.0878  133.4862  156.7378 C.ar    1  UNL1        0.0114
     13 C         142.8062  132.1579  156.1004 C.ar    1  UNL1        0.0585
     14 CL        142.9051  130.9005  156.9121 Cl      1  UNL1       -0.0822
     15 C         142.4257  132.0871  154.6511 C.ar    1  UNL1        0.0228
     16 C         142.3269  133.3446  153.8393 C.ar    1  UNL1        0.0585
     17 CL        141.9464  133.2737  152.3901 Cl      1  UNL1       -0.0822
     18 C         142.6085  134.6729  154.4768 C.ar    1  UNL1        0.0114
     19 C         138.0199  141.0020  161.6787 C.3     1  UNL1        0.0898
     20 O         140.2070  141.9547  163.4977 O.2     1  UNL1       -0.2702
     21 C         139.1094  141.0854  164.0358 C.2     1  UNL1        0.2456
     22 N         138.0159  140.6090  163.1263 N.am    1  UNL1       -0.3009
     23 H         137.2955  140.0384  163.4795 H       1  UNL1        0.1497
     24 C         139.1054  140.6924  165.4835 C.2     1  UNL1        0.0525
     25 C         138.2842  139.5236  165.9410 C.2     1  UNL1       -0.0153
     26 C         138.2803  139.1307  167.3886 C.3     1  UNL1        0.0726
     27 C         139.0975  139.9066  168.3786 C.2     1  UNL1        0.0933
     28 N         139.2902  139.7557  169.8586 N.am    1  UNL1       -0.1431
     29 C         140.2305  140.8313  170.3156 C.2     1  UNL1        0.4298
     30 O         140.7000  141.0524  171.7230 O.2     1  UNL1       -0.2238
     31 O         140.6189  141.6469  169.1181 O.3     1  UNL1       -0.4079
     32 C         139.9186  141.0754  167.9211 C.2     1  UNL1        0.1618
     33 C         139.9226  141.4683  166.4735 C.2     1  UNL1        0.0429
@<TRIPOS>BOND
     1    20    21    2
     2    21    22   am
     3    22    19    1
     4     1    19    1
     5     1     2    1
     6     2     3    1
     7     3     4    1
     8     4     5   am
     9     5     6    2
    10     5     9    1
    11     9    10    2
    12    10    11    1
    13    11    12   ar
    14    12    13   ar
    15    13    14    1
    16    13    15   ar
    17    15    16   ar
    18    16    17    1
    19    16    18   ar
    20     4     7    1
    21     8     7    1
    22    21    24    1
    23    24    25    2
    24    25    26    1
    25    26    27    1
    26    27    28    2
    27    28    29    1
    28    29    30    2
    29    29    31    1
    30    31    32    1
    31    32    33    2
    32     8     1    1
    33    33    24    1
    34     8     2    1
    35    32    27    1
    36    18    11   ar
    37    22    23    1
