@<TRIPOS>MOLECULE
*****
 39 43 0 0 0
SMALL
GASTEIGER

@<TRIPOS>ATOM
      1 C         142.2334  139.3900  162.3422 C.ar    1  UNL1        0.1200
      2 N         141.4805  138.7273  161.2269 N.ar    1  UNL1       -0.2309
      3 C         142.3969  138.6285  160.0436 C.ar    1  UNL1        0.0997
      4 C         143.7163  139.2302  160.4275 C.ar    1  UNL1        0.0961
      5 N         143.6151  139.7008  161.8482 N.ar    1  UNL1       -0.3123
      6 C         142.0542  138.0326  158.7103 C.ar    1  UNL1        0.0193
      7 C         140.8738  138.5462  157.9404 C.ar    1  UNL1        0.0038
      8 C         140.5311  137.9505  156.6072 C.ar    1  UNL1        0.0296
      9 C         141.3688  136.8409  156.0438 C.ar    1  UNL1        0.1440
     10 F         141.0262  136.2451  154.7106 F       1  UNL1       -0.2042
     11 C         142.5492  136.3273  156.8138 C.ar    1  UNL1        0.0988
     12 C         142.8919  136.9232  158.1470 C.ar    1  UNL1        0.0077
     13 C         143.3869  135.2179  156.2505 C.3     1  UNL1        0.4207
     14 F         144.2247  134.1084  155.6872 F       1  UNL1       -0.1658
     15 F         142.4174  134.2102  156.7933 F       1  UNL1       -0.1658
     16 F         144.3565  136.2255  155.7077 F       1  UNL1       -0.1658
     17 N         140.6285  140.2881  166.4493 N.pl3   1  UNL1       -0.2931
     18 C         141.7435  139.2991  166.2794 C.3     1  UNL1        0.0926
     19 C         142.2784  138.9998  164.9105 C.3     1  UNL1        0.0290
     20 C         141.6984  139.6894  163.7112 C.3     1  UNL1        0.0603
     21 C         140.5834  140.6783  163.8810 C.3     1  UNL1        0.0290
     22 C         140.0485  140.9776  165.2501 C.3     1  UNL1        0.0926
     23 C         140.6275  141.7554  168.5934 C.ar    1  UNL1        0.0628
     24 C         140.0926  142.0546  169.9624 C.ar    1  UNL1        0.1298
     25 N         140.6265  143.2227  170.7375 N.pl3   1  UNL1       -0.3425
     26 N         139.0236  141.1860  170.5563 N.ar    1  UNL1       -0.2094
     27 C         138.4896  140.0180  169.7813 C.ar    1  UNL1        0.2012
     28 N         139.0246  139.7187  168.4123 N.ar    1  UNL1       -0.2089
     29 C         140.0935  140.5874  167.8184 C.ar    1  UNL1        0.1361
     30 H         141.3281  143.7928  170.3476 H       1  UNL1        0.1437
     31 H         140.2754  143.4191  171.6360 H       1  UNL1        0.1437
     32 C         143.1417  142.2698  168.1883 C.2     1  UNL1        0.0002
     33 C         141.6964  142.6240  167.9994 C.2     1  UNL1        0.0056
     34 C         144.7046  140.3655  162.6364 C.3     1  UNL1        0.1245
     35 C         145.0423  141.8048  162.3831 C.3     1  UNL1        0.0969
     36 N         144.3213  142.8872  163.1304 N.3     1  UNL1       -0.2710
     37 C         144.0501  144.3427  162.8896 C.3     1  UNL1        0.0736
     38 C         143.3017  144.4179  164.1874 C.3     1  UNL1        0.0346
     39 C         143.5730  142.9625  164.4282 C.3     1  UNL1        0.0736
@<TRIPOS>BOND
     1    32    33    2
     2    33    23    1
     3    23    24   ar
     4    24    25    1
     5    24    26   ar
     6    26    27   ar
     7    27    28   ar
     8    28    29   ar
     9    29    17    1
    10    17    18    1
    11    18    19    1
    12    19    20    1
    13    20     1    1
    14     1     2   ar
    15     2     3   ar
    16     3     6    1
    17     6     7   ar
    18     7     8   ar
    19     8     9   ar
    20     9    10    1
    21     9    11   ar
    22    11    13    1
    23    13    14    1
    24    13    15    1
    25    13    16    1
    26    11    12   ar
    27     3     4   ar
    28     4     5   ar
    29     5    34    1
    30    34    35    1
    31    35    36    1
    32    36    37    1
    33    37    38    1
    34    38    39    1
    35    20    21    1
    36    21    22    1
    37    29    23   ar
    38    22    17    1
    39     5     1   ar
    40    39    36    1
    41    12     6   ar
    42    25    30    1
    43    25    31    1
@<TRIPOS>MOLECULE
*****
 39 43 0 0 0
SMALL
GASTEIGER

@<TRIPOS>ATOM
      1 C         142.6394  139.4928  161.8377 C.ar    1  UNL1        0.1200
      2 N         141.9665  138.5218  160.9133 N.ar    1  UNL1       -0.2309
      3 C         142.4943  138.7577  159.5292 C.ar    1  UNL1        0.0997
      4 C         143.4934  139.8745  159.5981 C.ar    1  UNL1        0.0961
      5 N         143.5830  140.3288  161.0248 N.ar    1  UNL1       -0.3123
      6 C         142.0934  138.0084  158.2932 C.ar    1  UNL1        0.0193
      7 C         140.8711  138.4222  157.5285 C.ar    1  UNL1        0.0038
      8 C         140.4701  137.6730  156.2925 C.ar    1  UNL1        0.0296
      9 C         141.2916  136.5097  155.8210 C.ar    1  UNL1        0.1440
     10 F         140.8908  135.7604  154.5851 F       1  UNL1       -0.2042
     11 C         142.5139  136.0959  156.5857 C.ar    1  UNL1        0.0988
     12 C         142.9148  136.8452  157.8217 C.ar    1  UNL1        0.0077
     13 C         143.3354  134.9327  156.1143 C.3     1  UNL1        0.4207
     14 F         144.1568  133.7696  155.6428 F       1  UNL1       -0.1658
     15 F         142.2678  133.9889  156.5827 F       1  UNL1       -0.1658
     16 F         144.4029  135.8765  155.6458 F       1  UNL1       -0.1658
     17 N         141.9484  139.8373  166.2709 N.pl3   1  UNL1       -0.2931
     18 C         141.8964  141.0620  165.4064 C.3     1  UNL1        0.0926
     19 C         142.1267  140.9472  163.9287 C.3     1  UNL1        0.0290
     20 C         142.4090  139.6076  163.3154 C.3     1  UNL1        0.0603
     21 C         142.4610  138.3830  164.1800 C.3     1  UNL1        0.0290
     22 C         142.2307  138.4978  165.6578 C.3     1  UNL1        0.0926
     23 C         140.3270  140.1367  168.2789 C.ar    1  UNL1        0.0628
     24 C         140.0967  140.2515  169.7566 C.ar    1  UNL1        0.1298
     25 N         138.7057  140.4361  170.2868 N.pl3   1  UNL1       -0.3425
     26 N         141.2574  140.1819  170.7042 N.ar    1  UNL1       -0.2094
     27 C         142.6484  139.9974  170.1741 C.ar    1  UNL1        0.2012
     28 N         142.8787  139.8825  168.6963 N.ar    1  UNL1       -0.2089
     29 C         141.7180  139.9522  167.7488 C.ar    1  UNL1        0.1361
     30 H         137.9439  140.4818  169.6649 H       1  UNL1        0.1437
     31 H         138.5546  140.5114  171.2567 H       1  UNL1        0.1437
     32 C         138.4501  138.9513  166.9292 C.2     1  UNL1        0.0002
     33 C         139.1663  140.2063  167.3313 C.2     1  UNL1        0.0056
     34 C         144.4620  141.4264  161.5470 C.3     1  UNL1        0.1245
     35 C         144.2001  142.8494  161.1514 C.3     1  UNL1        0.0969
     36 N         143.5228  143.7822  162.1111 N.3     1  UNL1       -0.2710
     37 C         143.9513  144.5461  163.3288 C.3     1  UNL1        0.0736
     38 C         142.5649  145.1014  163.4683 C.3     1  UNL1        0.0346
     39 C         142.1364  144.3375  162.2507 C.3     1  UNL1        0.0736
@<TRIPOS>BOND
     1    32    33    2
     2    33    23    1
     3    23    24   ar
     4    24    25    1
     5    24    26   ar
     6    26    27   ar
     7    27    28   ar
     8    28    29   ar
     9    29    17    1
    10    17    18    1
    11    18    19    1
    12    19    20    1
    13    20     1    1
    14     1     2   ar
    15     2     3   ar
    16     3     6    1
    17     6     7   ar
    18     7     8   ar
    19     8     9   ar
    20     9    10    1
    21     9    11   ar
    22    11    13    1
    23    13    14    1
    24    13    15    1
    25    13    16    1
    26    11    12   ar
    27     3     4   ar
    28     4     5   ar
    29     5    34    1
    30    34    35    1
    31    35    36    1
    32    36    37    1
    33    37    38    1
    34    38    39    1
    35    20    21    1
    36    21    22    1
    37    29    23   ar
    38    22    17    1
    39     5     1   ar
    40    39    36    1
    41    12     6   ar
    42    25    30    1
    43    25    31    1
@<TRIPOS>MOLECULE
*****
 39 43 0 0 0
SMALL
GASTEIGER

@<TRIPOS>ATOM
      1 C         142.7127  139.6777  160.4803 C.ar    1  UNL1        0.1200
      2 N         142.5255  138.4019  159.7139 N.ar    1  UNL1       -0.2309
      3 C         142.9364  138.6503  158.2928 C.ar    1  UNL1        0.0997
      4 C         143.3774  140.0797  158.1809 C.ar    1  UNL1        0.0961
      5 N         143.2392  140.7146  159.5328 N.ar    1  UNL1       -0.3123
      6 C         142.9106  137.6458  157.1791 C.ar    1  UNL1        0.0193
      7 C         142.8891  138.1081  155.7524 C.ar    1  UNL1        0.0038
      8 C         142.8634  137.1037  154.6387 C.ar    1  UNL1        0.0296
      9 C         142.8592  135.6367  154.9518 C.ar    1  UNL1        0.1440
     10 F         142.8335  134.6322  153.8382 F       1  UNL1       -0.2042
     11 C         142.8808  135.1743  156.3786 C.ar    1  UNL1        0.0988
     12 C         142.9065  136.1788  157.4923 C.ar    1  UNL1        0.0077
     13 C         142.8766  133.7074  156.6917 C.3     1  UNL1        0.4207
     14 F         142.8724  132.2404  157.0048 F       1  UNL1       -0.1658
     15 F         141.5185  133.5781  156.0680 F       1  UNL1       -0.1658
     16 F         144.2346  133.8366  157.3154 F       1  UNL1       -0.1658
     17 N         141.8467  140.2873  164.8539 N.pl3   1  UNL1       -0.2931
     18 C         142.7363  139.1620  164.4152 C.3     1  UNL1        0.0926
     19 C         143.0250  138.9588  162.9573 C.3     1  UNL1        0.0290
     20 C         142.4240  139.8809  161.9381 C.3     1  UNL1        0.0603
     21 C         141.5345  141.0062  162.3768 C.3     1  UNL1        0.0290
     22 C         141.2458  141.2093  163.8348 C.3     1  UNL1        0.0926
     23 C         140.3074  139.9231  166.9149 C.ar    1  UNL1        0.0628
     24 C         140.0188  140.1263  168.3728 C.ar    1  UNL1        0.1298
     25 N         138.7680  139.5590  168.9759 N.pl3   1  UNL1       -0.3425
     26 N         140.9809  140.8968  169.2275 N.ar    1  UNL1       -0.2094
     27 C         142.2317  141.4641  168.6244 C.ar    1  UNL1        0.2012
     28 N         142.5202  141.2609  167.1666 N.ar    1  UNL1       -0.2089
     29 C         141.5581  140.4904  166.3118 C.ar    1  UNL1        0.1361
     30 H         138.1365  139.0533  168.4150 H       1  UNL1        0.1437
     31 H         138.5786  139.6923  169.9328 H       1  UNL1        0.1437
     32 C         138.1821  139.8527  165.4221 C.2     1  UNL1        0.0002
     33 C         139.3452  139.1526  166.0602 C.2     1  UNL1        0.0056
     34 C         143.5694  142.1368  159.8769 C.3     1  UNL1        0.1245
     35 C         144.8472  142.4577  160.5939 C.3     1  UNL1        0.0969
     36 N         144.8834  142.4690  162.0934 N.3     1  UNL1       -0.2710
     37 C         144.2776  143.3292  163.1625 C.3     1  UNL1        0.0736
     38 C         144.9345  142.4850  164.2140 C.3     1  UNL1        0.0346
     39 C         145.5403  141.6248  163.1449 C.3     1  UNL1        0.0736
@<TRIPOS>BOND
     1    32    33    2
     2    33    23    1
     3    23    24   ar
     4    24    25    1
     5    24    26   ar
     6    26    27   ar
     7    27    28   ar
     8    28    29   ar
     9    29    17    1
    10    17    18    1
    11    18    19    1
    12    19    20    1
    13    20     1    1
    14     1     2   ar
    15     2     3   ar
    16     3     6    1
    17     6     7   ar
    18     7     8   ar
    19     8     9   ar
    20     9    10    1
    21     9    11   ar
    22    11    13    1
    23    13    14    1
    24    13    15    1
    25    13    16    1
    26    11    12   ar
    27     3     4   ar
    28     4     5   ar
    29     5    34    1
    30    34    35    1
    31    35    36    1
    32    36    37    1
    33    37    38    1
    34    38    39    1
    35    20    21    1
    36    21    22    1
    37    29    23   ar
    38    22    17    1
    39     5     1   ar
    40    39    36    1
    41    12     6   ar
    42    25    30    1
    43    25    31    1
@<TRIPOS>MOLECULE
*****
 39 43 0 0 0
SMALL
GASTEIGER

@<TRIPOS>ATOM
      1 C         140.7565  139.5485  163.2828 C.ar    1  UNL1        0.1200
      2 N         141.3918  139.9535  164.5798 N.ar    1  UNL1       -0.2309
      3 C         140.3498  139.8619  165.6549 C.ar    1  UNL1        0.0997
      4 C         139.0705  139.4002  165.0223 C.ar    1  UNL1        0.0961
      5 N         139.3218  139.2065  163.5563 N.ar    1  UNL1       -0.3123
      6 C         140.5517  140.1766  167.1076 C.ar    1  UNL1        0.0193
      7 C         139.4580  139.8955  168.0949 C.ar    1  UNL1        0.0038
      8 C         139.6598  140.2102  169.5475 C.ar    1  UNL1        0.0296
      9 C         140.9555  140.8061  170.0129 C.ar    1  UNL1        0.1440
     10 F         141.1573  141.1208  171.4655 F       1  UNL1       -0.2042
     11 C         142.0491  141.0872  169.0255 C.ar    1  UNL1        0.0988
     12 C         141.8473  140.7724  167.5729 C.ar    1  UNL1        0.0077
     13 C         143.3447  141.6830  169.4909 C.3     1  UNL1        0.4207
     14 F         144.6402  142.2788  169.9562 F       1  UNL1       -0.1658
     15 F         143.1051  142.8822  168.6223 F       1  UNL1       -0.1658
     16 F         143.5842  140.4838  170.3594 F       1  UNL1       -0.1658
     17 N         142.7965  139.3876  159.2750 N.pl3   1  UNL1       -0.2931
     18 C         143.1533  138.3920  160.3387 C.3     1  UNL1        0.0926
     19 C         142.4733  138.4456  161.6746 C.3     1  UNL1        0.0290
     20 C         141.4365  139.4949  161.9469 C.3     1  UNL1        0.0603
     21 C         141.0797  140.4905  160.8832 C.3     1  UNL1        0.0290
     22 C         141.7598  140.4369  159.5472 C.3     1  UNL1        0.0926
     23 C         143.0618  138.3074  156.9270 C.ar    1  UNL1        0.0628
     24 C         143.7418  138.2537  155.5912 C.ar    1  UNL1        0.1298
     25 N         143.3271  137.2271  154.5791 N.pl3   1  UNL1       -0.3425
     26 N         144.8366  139.2267  155.2672 N.ar    1  UNL1       -0.2094
     27 C         145.2513  140.2532  156.2792 C.ar    1  UNL1        0.2012
     28 N         144.5713  140.3069  157.6151 N.ar    1  UNL1       -0.2089
     29 C         143.4765  139.3339  157.9390 C.ar    1  UNL1        0.1361
     30 H         142.6086  136.5886  154.7917 H       1  UNL1        0.1437
     31 H         143.7735  137.1919  153.7023 H       1  UNL1        0.1437
     32 C         140.5358  137.7040  156.9966 C.2     1  UNL1        0.0002
     33 C         141.9671  137.3344  157.2510 C.2     1  UNL1        0.0056
     34 C         138.3152  138.7509  162.5418 C.3     1  UNL1        0.1245
     35 C         137.6174  139.7557  161.6739 C.3     1  UNL1        0.0969
     36 N         137.6790  141.2146  162.0171 N.3     1  UNL1       -0.2710
     37 C         138.0990  142.4582  161.2912 C.3     1  UNL1        0.0736
     38 C         137.7661  143.2778  162.5025 C.3     1  UNL1        0.0346
     39 C         137.3461  142.0342  163.2284 C.3     1  UNL1        0.0736
@<TRIPOS>BOND
     1    32    33    2
     2    33    23    1
     3    23    24   ar
     4    24    25    1
     5    24    26   ar
     6    26    27   ar
     7    27    28   ar
     8    28    29   ar
     9    29    17    1
    10    17    18    1
    11    18    19    1
    12    19    20    1
    13    20     1    1
    14     1     2   ar
    15     2     3   ar
    16     3     6    1
    17     6     7   ar
    18     7     8   ar
    19     8     9   ar
    20     9    10    1
    21     9    11   ar
    22    11    13    1
    23    13    14    1
    24    13    15    1
    25    13    16    1
    26    11    12   ar
    27     3     4   ar
    28     4     5   ar
    29     5    34    1
    30    34    35    1
    31    35    36    1
    32    36    37    1
    33    37    38    1
    34    38    39    1
    35    20    21    1
    36    21    22    1
    37    29    23   ar
    38    22    17    1
    39     5     1   ar
    40    39    36    1
    41    12     6   ar
    42    25    30    1
    43    25    31    1
@<TRIPOS>MOLECULE
*****
 39 43 0 0 0
SMALL
GASTEIGER

@<TRIPOS>ATOM
      1 C         140.6466  140.9889  163.1042 C.ar    1  UNL1        0.1200
      2 N         141.5465  141.0763  164.3010 N.ar    1  UNL1       -0.2309
      3 C         140.8040  141.7962  165.3876 C.ar    1  UNL1        0.0997
      4 C         139.4452  142.1537  164.8622 C.ar    1  UNL1        0.0961
      5 N         139.3480  141.6547  163.4510 N.ar    1  UNL1       -0.3123
      6 C         141.3283  142.1044  166.7588 C.ar    1  UNL1        0.0193
      7 C         142.7973  141.9953  167.0421 C.ar    1  UNL1        0.0038
      8 C         143.3216  142.3036  168.4132 C.ar    1  UNL1        0.0296
      9 C         142.3769  142.7210  169.5012 C.ar    1  UNL1        0.1440
     10 F         142.9011  143.0292  170.8723 F       1  UNL1       -0.2042
     11 C         140.9079  142.8301  169.2178 C.ar    1  UNL1        0.0988
     12 C         140.3837  142.5218  167.8466 C.ar    1  UNL1        0.0077
     13 C         139.9633  143.2474  170.3056 C.3     1  UNL1        0.4207
     14 F         139.0186  143.6648  171.3934 F       1  UNL1       -0.1658
     15 F         139.5493  141.8181  170.4945 F       1  UNL1       -0.1658
     16 F         140.3772  144.6767  170.1167 F       1  UNL1       -0.1658
     17 N         141.6641  139.0666  159.1647 N.pl3   1  UNL1       -0.2931
     18 C         140.5927  138.4762  160.0328 C.3     1  UNL1        0.0926
     19 C         140.2535  139.1169  161.3459 C.3     1  UNL1        0.0290
     20 C         140.9858  140.3481  161.7910 C.3     1  UNL1        0.0603
     21 C         142.0572  140.9385  160.9230 C.3     1  UNL1        0.0290
     22 C         142.3963  140.2977  159.6098 C.3     1  UNL1        0.0926
     23 C         141.3946  138.9466  156.5834 C.ar    1  UNL1        0.0628
     24 C         141.7337  138.3058  155.2703 C.ar    1  UNL1        0.1298
     25 N         141.1250  138.8267  154.0021 N.pl3   1  UNL1       -0.3425
     26 N         142.6816  137.1441  155.2253 N.ar    1  UNL1       -0.2094
     27 C         143.2904  136.6233  156.4934 C.ar    1  UNL1        0.2012
     28 N         142.9512  137.2641  157.8065 N.ar    1  UNL1       -0.2089
     29 C         142.0033  138.4258  157.8515 C.ar    1  UNL1        0.1361
     30 H         140.5029  139.5891  154.0316 H       1  UNL1        0.1437
     31 H         141.3476  138.4061  153.1403 H       1  UNL1        0.1437
     32 C         138.9840  139.8741  156.8643 C.2     1  UNL1        0.0002
     33 C         140.4467  140.1083  156.6284 C.2     1  UNL1        0.0056
     34 C         138.1605  141.7967  162.5456 C.3     1  UNL1        0.1245
     35 C         138.1569  142.8442  161.4720 C.3     1  UNL1        0.0969
     36 N         138.9877  144.0831  161.6300 N.3     1  UNL1       -0.2710
     37 C         140.1021  144.7190  160.8532 C.3     1  UNL1        0.0736
     38 C         140.1625  145.8351  161.8535 C.3     1  UNL1        0.0346
     39 C         139.0480  145.1992  162.6304 C.3     1  UNL1        0.0736
@<TRIPOS>BOND
     1    32    33    2
     2    33    23    1
     3    23    24   ar
     4    24    25    1
     5    24    26   ar
     6    26    27   ar
     7    27    28   ar
     8    28    29   ar
     9    29    17    1
    10    17    18    1
    11    18    19    1
    12    19    20    1
    13    20     1    1
    14     1     2   ar
    15     2     3   ar
    16     3     6    1
    17     6     7   ar
    18     7     8   ar
    19     8     9   ar
    20     9    10    1
    21     9    11   ar
    22    11    13    1
    23    13    14    1
    24    13    15    1
    25    13    16    1
    26    11    12   ar
    27     3     4   ar
    28     4     5   ar
    29     5    34    1
    30    34    35    1
    31    35    36    1
    32    36    37    1
    33    37    38    1
    34    38    39    1
    35    20    21    1
    36    21    22    1
    37    29    23   ar
    38    22    17    1
    39     5     1   ar
    40    39    36    1
    41    12     6   ar
    42    25    30    1
    43    25    31    1
@<TRIPOS>MOLECULE
*****
 39 43 0 0 0
SMALL
GASTEIGER

@<TRIPOS>ATOM
      1 C         142.2517  139.5304  162.7618 C.ar    1  UNL1        0.1200
      2 N         142.9336  140.0858  161.5466 N.ar    1  UNL1       -0.2309
      3 C         142.6364  139.1758  160.3918 C.ar    1  UNL1        0.0997
      4 C         141.7708  138.0580  160.8932 C.ar    1  UNL1        0.0961
      5 N         141.5330  138.2772  162.3579 N.ar    1  UNL1       -0.3123
      6 C         143.1199  139.3525  158.9829 C.ar    1  UNL1        0.0193
      7 C         143.8861  140.5845  158.6018 C.ar    1  UNL1        0.0038
      8 C         144.3697  140.7612  157.1931 C.ar    1  UNL1        0.0296
      9 C         144.0869  139.7060  156.1651 C.ar    1  UNL1        0.1440
     10 F         144.5704  139.8827  154.7562 F       1  UNL1       -0.2042
     11 C         143.3207  138.4740  156.5461 C.ar    1  UNL1        0.0988
     12 C         142.8372  138.2973  157.9550 C.ar    1  UNL1        0.0077
     13 C         143.0380  137.4188  155.5182 C.3     1  UNL1        0.4207
     14 F         142.7553  136.3636  154.4903 F       1  UNL1       -0.1658
     15 F         141.5990  137.8405  155.4811 F       1  UNL1       -0.1658
     16 F         144.4770  136.9972  155.5553 F       1  UNL1       -0.1658
     17 N         142.3454  141.3114  166.8932 N.pl3   1  UNL1       -0.2931
     18 C         141.9143  142.1483  165.7254 C.3     1  UNL1        0.0926
     19 C         141.8831  141.5546  164.3482 C.3     1  UNL1        0.0290
     20 C         142.2829  140.1241  164.1389 C.3     1  UNL1        0.0603
     21 C         142.7140  139.2873  165.3068 C.3     1  UNL1        0.0290
     22 C         142.7452  139.8810  166.6840 C.3     1  UNL1        0.0926
     23 C         141.1197  141.9740  169.0861 C.ar    1  UNL1        0.0628
     24 C         141.1510  142.5677  170.4633 C.ar    1  UNL1        0.1298
     25 N         139.8941  142.6366  171.2791 N.pl3   1  UNL1       -0.3425
     26 N         142.4392  143.0926  171.0247 N.ar    1  UNL1       -0.2094
     27 C         143.6961  143.0237  170.2090 C.ar    1  UNL1        0.2012
     28 N         143.6648  142.4300  168.8318 N.ar    1  UNL1       -0.2089
     29 C         142.3766  141.9052  168.2704 C.ar    1  UNL1        0.1361
     30 H         139.0486  142.2922  170.9106 H       1  UNL1        0.1437
     31 H         139.9146  143.0263  172.1829 H       1  UNL1        0.1437
     32 C         139.4506  140.0140  168.7367 C.2     1  UNL1        0.0002
     33 C         139.8316  141.4492  168.5247 C.2     1  UNL1        0.0056
     34 C         140.7195  137.3976  163.2604 C.3     1  UNL1        0.1245
     35 C         139.2565  137.6677  163.4514 C.3     1  UNL1        0.0969
     36 N         138.8007  139.0013  163.9652 N.3     1  UNL1       -0.2710
     37 C         138.5150  140.3361  163.3436 C.3     1  UNL1        0.0736
     38 C         138.1563  140.8871  164.6918 C.3     1  UNL1        0.0346
     39 C         138.4421  139.5523  165.3134 C.3     1  UNL1        0.0736
@<TRIPOS>BOND
     1    32    33    2
     2    33    23    1
     3    23    24   ar
     4    24    25    1
     5    24    26   ar
     6    26    27   ar
     7    27    28   ar
     8    28    29   ar
     9    29    17    1
    10    17    18    1
    11    18    19    1
    12    19    20    1
    13    20     1    1
    14     1     2   ar
    15     2     3   ar
    16     3     6    1
    17     6     7   ar
    18     7     8   ar
    19     8     9   ar
    20     9    10    1
    21     9    11   ar
    22    11    13    1
    23    13    14    1
    24    13    15    1
    25    13    16    1
    26    11    12   ar
    27     3     4   ar
    28     4     5   ar
    29     5    34    1
    30    34    35    1
    31    35    36    1
    32    36    37    1
    33    37    38    1
    34    38    39    1
    35    20    21    1
    36    21    22    1
    37    29    23   ar
    38    22    17    1
    39     5     1   ar
    40    39    36    1
    41    12     6   ar
    42    25    30    1
    43    25    31    1
@<TRIPOS>MOLECULE
*****
 39 43 0 0 0
SMALL
GASTEIGER

@<TRIPOS>ATOM
      1 C         141.6382  139.3963  163.5966 C.ar    1  UNL1        0.1200
      2 N         142.1815  140.0549  164.8298 N.ar    1  UNL1       -0.2309
      3 C         141.3660  139.5915  166.0004 C.ar    1  UNL1        0.0997
      4 C         140.3186  138.6464  165.4906 C.ar    1  UNL1        0.0961
      5 N         140.4869  138.5258  164.0050 N.ar    1  UNL1       -0.3123
      6 C         141.5632  140.0013  167.4298 C.ar    1  UNL1        0.0193
      7 C         142.4756  139.2086  168.3182 C.ar    1  UNL1        0.0038
      8 C         142.6729  139.6182  169.7475 C.ar    1  UNL1        0.0296
      9 C         141.9576  140.8207  170.2887 C.ar    1  UNL1        0.1440
     10 F         142.1548  141.2304  171.7180 F       1  UNL1       -0.2042
     11 C         141.0452  141.6133  169.4003 C.ar    1  UNL1        0.0988
     12 C         140.8480  141.2036  167.9709 C.ar    1  UNL1        0.0077
     13 C         140.3300  142.8157  169.9414 C.3     1  UNL1        0.4207
     14 F         139.6148  144.0181  170.4825 F       1  UNL1       -0.1658
     15 F         139.1156  141.9753  170.2038 F       1  UNL1       -0.1658
     16 F         141.5444  143.6562  169.6790 F       1  UNL1       -0.1658
     17 N         143.1898  139.9368  159.4073 N.pl3   1  UNL1       -0.2931
     18 C         144.0447  139.2693  160.4434 C.3     1  UNL1        0.0926
     19 C         143.5275  139.0891  161.8398 C.3     1  UNL1        0.0290
     20 C         142.1553  139.5765  162.2002 C.3     1  UNL1        0.0603
     21 C         141.3004  140.2440  161.1641 C.3     1  UNL1        0.0290
     22 C         141.8177  140.4242  159.7676 C.3     1  UNL1        0.0926
     23 C         144.2496  141.4467  157.5777 C.ar    1  UNL1        0.0628
     24 C         144.7668  141.6268  156.1813 C.ar    1  UNL1        0.1298
     25 N         145.3094  142.9565  155.7482 N.pl3   1  UNL1       -0.3425
     26 N         144.7414  140.4773  155.2180 N.ar    1  UNL1       -0.2094
     27 C         144.1988  139.1477  155.6511 C.ar    1  UNL1        0.2012
     28 N         143.6816  138.9675  157.0475 N.ar    1  UNL1       -0.2089
     29 C         143.7070  140.1170  158.0108 C.ar    1  UNL1        0.1361
     30 H         145.3261  143.7110  156.3804 H       1  UNL1        0.1437
     31 H         145.6489  143.0747  154.8316 H       1  UNL1        0.1437
     32 C         143.1415  143.5783  158.5669 C.2     1  UNL1        0.0002
     33 C         144.2750  142.5962  158.5411 C.2     1  UNL1        0.0056
     34 C         139.6506  137.6826  163.0886 C.3     1  UNL1        0.1245
     35 C         138.3346  138.1987  162.5870 C.3     1  UNL1        0.0969
     36 N         138.0225  139.6636  162.6698 N.3     1  UNL1       -0.2710
     37 C         137.7016  140.7376  161.6732 C.3     1  UNL1        0.0736
     38 C         137.5813  141.7351  162.7870 C.3     1  UNL1        0.0346
     39 C         137.9022  140.6610  163.7836 C.3     1  UNL1        0.0736
@<TRIPOS>BOND
     1    32    33    2
     2    33    23    1
     3    23    24   ar
     4    24    25    1
     5    24    26   ar
     6    26    27   ar
     7    27    28   ar
     8    28    29   ar
     9    29    17    1
    10    17    18    1
    11    18    19    1
    12    19    20    1
    13    20     1    1
    14     1     2   ar
    15     2     3   ar
    16     3     6    1
    17     6     7   ar
    18     7     8   ar
    19     8     9   ar
    20     9    10    1
    21     9    11   ar
    22    11    13    1
    23    13    14    1
    24    13    15    1
    25    13    16    1
    26    11    12   ar
    27     3     4   ar
    28     4     5   ar
    29     5    34    1
    30    34    35    1
    31    35    36    1
    32    36    37    1
    33    37    38    1
    34    38    39    1
    35    20    21    1
    36    21    22    1
    37    29    23   ar
    38    22    17    1
    39     5     1   ar
    40    39    36    1
    41    12     6   ar
    42    25    30    1
    43    25    31    1
@<TRIPOS>MOLECULE
*****
 39 43 0 0 0
SMALL
GASTEIGER

@<TRIPOS>ATOM
      1 C         141.6721  140.6455  163.4770 C.ar    1  UNL1        0.1200
      2 N         141.3855  141.1772  164.8500 N.ar    1  UNL1       -0.2309
      3 C         141.9515  140.2114  165.8485 C.ar    1  UNL1        0.0997
      4 C         142.5879  139.0828  165.0925 C.ar    1  UNL1        0.0961
      5 N         142.4152  139.3512  163.6268 N.ar    1  UNL1       -0.3123
      6 C         141.8916  140.3498  167.3409 C.ar    1  UNL1        0.0193
      7 C         142.5709  139.3384  168.2158 C.ar    1  UNL1        0.0038
      8 C         142.5111  139.4767  169.7081 C.ar    1  UNL1        0.0296
      9 C         141.7719  140.6267  170.3257 C.ar    1  UNL1        0.1440
     10 F         141.7120  140.7652  171.8180 F       1  UNL1       -0.2042
     11 C         141.0926  141.6382  169.4508 C.ar    1  UNL1        0.0988
     12 C         141.1525  141.4998  167.9584 C.ar    1  UNL1        0.0077
     13 C         140.3535  142.7881  170.0683 C.3     1  UNL1        0.4207
     14 F         139.6144  143.9381  170.6858 F       1  UNL1       -0.1658
     15 F         139.1504  141.9128  170.2584 F       1  UNL1       -0.1658
     16 F         141.5566  143.6635  169.8782 F       1  UNL1       -0.1658
     17 N         140.5070  142.5920  159.5906 N.pl3   1  UNL1       -0.2931
     18 C         139.4611  142.2955  160.6241 C.3     1  UNL1        0.0926
     19 C         139.8494  141.6467  161.9195 C.3     1  UNL1        0.0290
     20 C         141.2838  141.2943  162.1815 C.3     1  UNL1        0.0603
     21 C         142.3297  141.5908  161.1480 C.3     1  UNL1        0.0290
     22 C         141.9413  142.2397  159.8525 C.3     1  UNL1        0.0926
     23 C         140.3226  144.7144  158.1036 C.ar    1  UNL1        0.0628
     24 C         139.9342  145.3632  156.8081 C.ar    1  UNL1        0.1298
     25 N         140.1382  146.8369  156.6165 N.pl3   1  UNL1       -0.3425
     26 N         139.3417  144.5383  155.7042 N.ar    1  UNL1       -0.2094
     27 C         139.1377  143.0647  155.8958 C.ar    1  UNL1        0.2012
     28 N         139.5261  142.4159  157.1912 N.ar    1  UNL1       -0.2089
     29 C         140.1186  143.2408  158.2951 C.ar    1  UNL1        0.1361
     30 H         140.5271  147.3783  157.3410 H       1  UNL1        0.1437
     31 H         139.8833  147.2627  155.7663 H       1  UNL1        0.1437
     32 C         140.1145  145.8238  160.4436 C.2     1  UNL1        0.0002
     33 C         140.9151  145.5393  159.2075 C.2     1  UNL1        0.0056
     34 C         142.9005  138.4784  162.5076 C.3     1  UNL1        0.1245
     35 C         141.9348  137.6004  161.7684 C.3     1  UNL1        0.0969
     36 N         140.4588  137.7658  161.9781 N.3     1  UNL1       -0.2710
     37 C         139.3001  138.1502  161.1065 C.3     1  UNL1        0.0736
     38 C         138.3714  137.9999  162.2747 C.3     1  UNL1        0.0346
     39 C         139.5300  137.6155  163.1464 C.3     1  UNL1        0.0736
@<TRIPOS>BOND
     1    32    33    2
     2    33    23    1
     3    23    24   ar
     4    24    25    1
     5    24    26   ar
     6    26    27   ar
     7    27    28   ar
     8    28    29   ar
     9    29    17    1
    10    17    18    1
    11    18    19    1
    12    19    20    1
    13    20     1    1
    14     1     2   ar
    15     2     3   ar
    16     3     6    1
    17     6     7   ar
    18     7     8   ar
    19     8     9   ar
    20     9    10    1
    21     9    11   ar
    22    11    13    1
    23    13    14    1
    24    13    15    1
    25    13    16    1
    26    11    12   ar
    27     3     4   ar
    28     4     5   ar
    29     5    34    1
    30    34    35    1
    31    35    36    1
    32    36    37    1
    33    37    38    1
    34    38    39    1
    35    20    21    1
    36    21    22    1
    37    29    23   ar
    38    22    17    1
    39     5     1   ar
    40    39    36    1
    41    12     6   ar
    42    25    30    1
    43    25    31    1
@<TRIPOS>MOLECULE
*****
 39 43 0 0 0
SMALL
GASTEIGER

@<TRIPOS>ATOM
      1 C         139.6858  141.7822  163.3330 C.ar    1  UNL1        0.1200
      2 N         139.9974  141.0131  164.5826 N.ar    1  UNL1       -0.2309
      3 C         140.0407  141.9836  165.7255 C.ar    1  UNL1        0.0997
      4 C         139.7558  143.3525  165.1823 C.ar    1  UNL1        0.0961
      5 N         139.5364  143.2280  163.7037 N.ar    1  UNL1       -0.3123
      6 C         140.3198  141.6448  167.1598 C.ar    1  UNL1        0.0193
      7 C         139.6456  140.4660  167.7969 C.ar    1  UNL1        0.0038
      8 C         139.9247  140.1270  169.2311 C.ar    1  UNL1        0.0296
      9 C         140.8781  140.9670  170.0285 C.ar    1  UNL1        0.1440
     10 F         141.1572  140.6282  171.4627 F       1  UNL1       -0.2042
     11 C         141.5523  142.1458  169.3914 C.ar    1  UNL1        0.0988
     12 C         141.2731  142.4847  167.9571 C.ar    1  UNL1        0.0077
     13 C         142.5056  142.9858  170.1887 C.3     1  UNL1        0.4207
     14 F         143.4590  143.8257  170.9859 F       1  UNL1       -0.1658
     15 F         143.5036  141.8660  170.1750 F       1  UNL1       -0.1658
     16 F         141.5077  144.1055  170.2023 F       1  UNL1       -0.1658
     17 N         139.2717  140.0551  159.1983 N.pl3   1  UNL1       -0.2931
     18 C         140.5597  140.7006  159.6160 C.3     1  UNL1        0.0926
     19 C         140.6977  141.2763  160.9942 C.3     1  UNL1        0.0290
     20 C         139.5477  141.2065  161.9548 C.3     1  UNL1        0.0603
     21 C         138.2597  140.5611  161.5372 C.3     1  UNL1        0.0290
     22 C         138.1217  139.9854  160.1589 C.3     1  UNL1        0.0926
     23 C         138.5736  140.3180  156.7096 C.ar    1  UNL1        0.0628
     24 C         138.4356  139.7423  155.3314 C.ar    1  UNL1        0.1298
     25 N         137.8755  140.5808  154.2209 N.pl3   1  UNL1       -0.3425
     26 N         138.8577  138.3280  155.0637 N.ar    1  UNL1       -0.2094
     27 C         139.4178  137.4895  156.1741 C.ar    1  UNL1        0.2012
     28 N         139.5558  138.0652  157.5523 N.ar    1  UNL1       -0.2089
     29 C         139.1337  139.4794  157.8201 C.ar    1  UNL1        0.1361
     30 H         137.5985  141.5091  154.3966 H       1  UNL1        0.1437
     31 H         137.7850  140.2030  153.3163 H       1  UNL1        0.1437
     32 C         139.1501  142.8462  156.8691 C.2     1  UNL1        0.0002
     33 C         138.1515  141.7322  156.9774 C.2     1  UNL1        0.0056
     34 C         139.2228  144.3520  162.7612 C.3     1  UNL1        0.1245
     35 C         140.3265  145.2235  162.2396 C.3     1  UNL1        0.0969
     36 N         141.7515  144.9271  162.6025 N.3     1  UNL1       -0.2710
     37 C         142.6534  145.2931  163.7438 C.3     1  UNL1        0.0736
     38 C         143.7665  144.5080  163.1159 C.3     1  UNL1        0.0346
     39 C         142.8646  144.1420  161.9746 C.3     1  UNL1        0.0736
@<TRIPOS>BOND
     1    32    33    2
     2    33    23    1
     3    23    24   ar
     4    24    25    1
     5    24    26   ar
     6    26    27   ar
     7    27    28   ar
     8    28    29   ar
     9    29    17    1
    10    17    18    1
    11    18    19    1
    12    19    20    1
    13    20     1    1
    14     1     2   ar
    15     2     3   ar
    16     3     6    1
    17     6     7   ar
    18     7     8   ar
    19     8     9   ar
    20     9    10    1
    21     9    11   ar
    22    11    13    1
    23    13    14    1
    24    13    15    1
    25    13    16    1
    26    11    12   ar
    27     3     4   ar
    28     4     5   ar
    29     5    34    1
    30    34    35    1
    31    35    36    1
    32    36    37    1
    33    37    38    1
    34    38    39    1
    35    20    21    1
    36    21    22    1
    37    29    23   ar
    38    22    17    1
    39     5     1   ar
    40    39    36    1
    41    12     6   ar
    42    25    30    1
    43    25    31    1
