@<TRIPOS>MOLECULE
*****
 16 17 0 0 0
SMALL
GASTEIGER

@<TRIPOS>ATOM
      1 CL        143.1407  143.6523  170.9865 Cl      1  UNL1       -0.0814
      2 C         142.5174  142.6989  170.0106 C.ar    1  UNL1        0.0682
      3 C         143.2625  141.4692  169.5832 C.ar    1  UNL1        0.0119
      4 C         142.6391  140.5158  168.6072 C.ar    1  UNL1       -0.0033
      5 C         141.2706  140.7921  168.0587 C.ar    1  UNL1       -0.0199
      6 C         140.5255  142.0218  168.4861 C.ar    1  UNL1        0.0080
      7 C         141.1488  142.9752  169.4620 C.ar    1  UNL1        0.0679
      8 CL        140.4037  144.2049  169.8894 Cl      1  UNL1       -0.0814
      9 C         140.6472  139.8388  167.0827 C.3     1  UNL1        0.0424
     10 C         139.1680  139.6353  167.2263 C.3     1  UNL1        0.0315
     11 C         138.2616  138.7577  166.4148 C.2     1  UNL1       -0.0289
     12 C         138.6106  137.8670  165.2595 C.2     1  UNL1       -0.0136
     13 C         139.9521  137.6337  164.6302 C.3     1  UNL1        0.0950
     14 N         141.2760  138.2337  165.0009 N.3     1  UNL1       -0.2935
     15 C         141.5852  139.2150  166.0924 C.3     1  UNL1        0.0735
     16 H         141.5972  138.6910  164.1476 H       1  UNL1        0.1236
@<TRIPOS>BOND
     1     1     2    1
     2     2     3   ar
     3     3     4   ar
     4     4     5   ar
     5     5     9    1
     6     9    10    1
     7    10    11    1
     8    11    12    2
     9    12    13    1
    10    13    14    1
    11    14    15    1
    12     5     6   ar
    13     6     7   ar
    14     7     8    1
    15     7     2   ar
    16    15     9    1
    17    14    16    1
@<TRIPOS>MOLECULE
*****
 16 17 0 0 0
SMALL
GASTEIGER

@<TRIPOS>ATOM
      1 CL        143.9453  142.2400  169.8521 Cl      1  UNL1       -0.0814
      2 C         142.9037  142.3640  168.7799 C.ar    1  UNL1        0.0682
      3 C         143.3004  142.2816  167.3357 C.ar    1  UNL1        0.0119
      4 C         142.2587  142.4056  166.2634 C.ar    1  UNL1       -0.0033
      5 C         140.8204  142.6121  166.6355 C.ar    1  UNL1       -0.0199
      6 C         140.4236  142.6946  168.0797 C.ar    1  UNL1        0.0080
      7 C         141.4652  142.5706  169.1520 C.ar    1  UNL1        0.0679
      8 CL        141.0685  142.6531  170.5962 Cl      1  UNL1       -0.0814
      9 C         139.7787  142.7361  165.5633 C.3     1  UNL1        0.0424
     10 C         139.6526  144.0911  164.9322 C.3     1  UNL1        0.0315
     11 C         138.7175  144.5334  163.8459 C.2     1  UNL1       -0.0289
     12 C         137.6777  143.7301  163.1225 C.2     1  UNL1       -0.0136
     13 C         137.3160  142.2860  163.3067 C.3     1  UNL1        0.0950
     14 N         137.9049  141.2887  164.2598 N.3     1  UNL1       -0.2935
     15 C         139.0009  141.4891  165.2641 C.3     1  UNL1        0.0735
     16 H         138.2401  140.5322  163.6632 H       1  UNL1        0.1236
@<TRIPOS>BOND
     1     1     2    1
     2     2     3   ar
     3     3     4   ar
     4     4     5   ar
     5     5     9    1
     6     9    10    1
     7    10    11    1
     8    11    12    2
     9    12    13    1
    10    13    14    1
    11    14    15    1
    12     5     6   ar
    13     6     7   ar
    14     7     8    1
    15     7     2   ar
    16    15     9    1
    17    14    16    1
@<TRIPOS>MOLECULE
*****
 16 17 0 0 0
SMALL
GASTEIGER

@<TRIPOS>ATOM
      1 CL        137.5233  138.9604  161.3730 Cl      1  UNL1       -0.0814
      2 C         138.1808  139.1057  162.7133 C.ar    1  UNL1        0.0682
      3 C         138.9904  137.9762  163.2779 C.ar    1  UNL1        0.0119
      4 C         139.6480  138.1215  164.6183 C.ar    1  UNL1       -0.0033
      5 C         139.4960  139.3963  165.3940 C.ar    1  UNL1       -0.0199
      6 C         138.6864  140.5258  164.8294 C.ar    1  UNL1        0.0080
      7 C         138.0288  140.3805  163.4891 C.ar    1  UNL1        0.0679
      8 CL        137.2192  141.5100  162.9245 Cl      1  UNL1       -0.0814
      9 C         140.1535  139.5416  166.7343 C.3     1  UNL1        0.0424
     10 C         141.6516  139.4642  166.7361 C.3     1  UNL1        0.0315
     11 C         142.5923  139.5713  167.8996 C.2     1  UNL1       -0.0289
     12 C         142.2672  139.7821  169.3486 C.2     1  UNL1       -0.0136
     13 C         140.9212  139.9380  169.9922 C.3     1  UNL1        0.0950
     14 N         139.5679  139.9215  169.3455 N.3     1  UNL1       -0.2935
     15 C         139.2263  139.7451  167.8956 C.3     1  UNL1        0.0735
     16 H         139.1529  140.8182  169.5985 H       1  UNL1        0.1236
@<TRIPOS>BOND
     1     1     2    1
     2     2     3   ar
     3     3     4   ar
     4     4     5   ar
     5     5     9    1
     6     9    10    1
     7    10    11    1
     8    11    12    2
     9    12    13    1
    10    13    14    1
    11    14    15    1
    12     5     6   ar
    13     6     7   ar
    14     7     8    1
    15     7     2   ar
    16    15     9    1
    17    14    16    1
@<TRIPOS>MOLECULE
*****
 16 17 0 0 0
SMALL
GASTEIGER

@<TRIPOS>ATOM
      1 CL        142.7884  138.7763  170.1595 Cl      1  UNL1       -0.0814
      2 C         141.9698  139.4449  169.0952 C.ar    1  UNL1        0.0682
      3 C         142.4949  139.5387  167.6933 C.ar    1  UNL1        0.0119
      4 C         141.6763  140.2075  166.6290 C.ar    1  UNL1       -0.0033
      5 C         140.3326  140.7823  166.9666 C.ar    1  UNL1       -0.0199
      6 C         139.8075  140.6884  168.3686 C.ar    1  UNL1        0.0080
      7 C         140.6261  140.0197  169.4329 C.ar    1  UNL1        0.0679
      8 CL        140.1010  139.9259  170.8349 Cl      1  UNL1       -0.0814
      9 C         139.5139  141.4510  165.9024 C.3     1  UNL1        0.0424
     10 C         139.7689  142.9166  165.7099 C.3     1  UNL1        0.0315
     11 C         139.1214  143.8589  164.7388 C.2     1  UNL1       -0.0289
     12 C         138.0593  143.5683  163.7205 C.2     1  UNL1       -0.0136
     13 C         137.3820  142.2637  163.4216 C.3     1  UNL1        0.0950
     14 N         137.5998  140.9274  164.0673 N.3     1  UNL1       -0.2935
     15 C         138.5486  140.5658  165.1714 C.3     1  UNL1        0.0735
     16 H         137.8570  140.3103  163.2970 H       1  UNL1        0.1236
@<TRIPOS>BOND
     1     1     2    1
     2     2     3   ar
     3     3     4   ar
     4     4     5   ar
     5     5     9    1
     6     9    10    1
     7    10    11    1
     8    11    12    2
     9    12    13    1
    10    13    14    1
    11    14    15    1
    12     5     6   ar
    13     6     7   ar
    14     7     8    1
    15     7     2   ar
    16    15     9    1
    17    14    16    1
@<TRIPOS>MOLECULE
*****
 16 17 0 0 0
SMALL
GASTEIGER

@<TRIPOS>ATOM
      1 CL        138.4669  140.1867  169.9947 Cl      1  UNL1       -0.0814
      2 C         139.5806  140.3920  169.0112 C.ar    1  UNL1        0.0682
      3 C         140.8016  141.1660  169.4116 C.ar    1  UNL1        0.0119
      4 C         141.9154  141.3713  168.4280 C.ar    1  UNL1       -0.0033
      5 C         141.8082  140.8028  167.0441 C.ar    1  UNL1       -0.0199
      6 C         140.5872  140.0289  166.6437 C.ar    1  UNL1        0.0080
      7 C         139.4734  139.8235  167.6272 C.ar    1  UNL1        0.0679
      8 CL        138.2525  139.0496  167.2268 Cl      1  UNL1       -0.0814
      9 C         142.9219  141.0081  166.0605 C.3     1  UNL1        0.0424
     10 C         143.3852  142.4244  165.8884 C.3     1  UNL1        0.0315
     11 C         144.4662  142.9525  164.9923 C.2     1  UNL1       -0.0289
     12 C         145.3506  142.1947  164.0472 C.2     1  UNL1       -0.0136
     13 C         145.3727  140.7217  163.7645 C.3     1  UNL1        0.0950
     14 N         144.5157  139.6427  164.3573 N.3     1  UNL1       -0.2935
     15 C         143.4250  139.7703  165.3791 C.3     1  UNL1        0.0735
     16 H         145.1792  138.9884  164.7720 H       1  UNL1        0.1236
@<TRIPOS>BOND
     1     1     2    1
     2     2     3   ar
     3     3     4   ar
     4     4     5   ar
     5     5     9    1
     6     9    10    1
     7    10    11    1
     8    11    12    2
     9    12    13    1
    10    13    14    1
    11    14    15    1
    12     5     6   ar
    13     6     7   ar
    14     7     8    1
    15     7     2   ar
    16    15     9    1
    17    14    16    1
@<TRIPOS>MOLECULE
*****
 16 17 0 0 0
SMALL
GASTEIGER

@<TRIPOS>ATOM
      1 CL        140.8808  142.9306  169.2059 Cl      1  UNL1       -0.0814
      2 C         140.3579  142.2545  167.9733 C.ar    1  UNL1        0.0682
      3 C         140.2700  143.0127  166.6821 C.ar    1  UNL1        0.0119
      4 C         139.7471  142.3365  165.4494 C.ar    1  UNL1       -0.0033
      5 C         139.3122  140.9022  165.5080 C.ar    1  UNL1       -0.0199
      6 C         139.4001  140.1440  166.7993 C.ar    1  UNL1        0.0080
      7 C         139.9230  140.8201  168.0320 C.ar    1  UNL1        0.0679
      8 CL        140.0110  140.0618  169.3232 Cl      1  UNL1       -0.0814
      9 C         138.7893  140.2260  164.2754 C.3     1  UNL1        0.0424
     10 C         139.1492  138.7775  164.1255 C.3     1  UNL1        0.0315
     11 C         138.7843  137.8329  163.0188 C.2     1  UNL1       -0.0289
     12 C         137.9696  138.1035  161.7889 C.2     1  UNL1       -0.0136
     13 C         137.3184  139.3855  161.3616 C.3     1  UNL1        0.0950
     14 N         137.3211  140.7135  162.0590 N.3     1  UNL1       -0.2935
     15 C         137.9758  141.0875  163.3558 C.3     1  UNL1        0.0735
     16 H         136.3344  140.9307  162.1989 H       1  UNL1        0.1236
@<TRIPOS>BOND
     1     1     2    1
     2     2     3   ar
     3     3     4   ar
     4     4     5   ar
     5     5     9    1
     6     9    10    1
     7    10    11    1
     8    11    12    2
     9    12    13    1
    10    13    14    1
    11    14    15    1
    12     5     6   ar
    13     6     7   ar
    14     7     8    1
    15     7     2   ar
    16    15     9    1
    17    14    16    1
@<TRIPOS>MOLECULE
*****
 16 17 0 0 0
SMALL
GASTEIGER

@<TRIPOS>ATOM
      1 CL        154.3666  137.0779  164.3596 Cl      1  UNL1       -0.0814
      2 C         154.4688  135.5888  164.2112 C.ar    1  UNL1        0.0682
      3 C         154.5959  134.9780  162.8471 C.ar    1  UNL1        0.0119
      4 C         154.6981  133.4888  162.6988 C.ar    1  UNL1       -0.0033
      5 C         154.6731  132.6105  163.9145 C.ar    1  UNL1       -0.0199
      6 C         154.5460  133.2214  165.2785 C.ar    1  UNL1        0.0080
      7 C         154.4438  134.7105  165.4270 C.ar    1  UNL1        0.0679
      8 CL        154.3167  135.3213  166.7911 Cl      1  UNL1       -0.0814
      9 C         154.7753  131.1214  163.7662 C.3     1  UNL1        0.0424
     10 C         154.5187  130.5855  162.3888 C.3     1  UNL1        0.0315
     11 C         154.5440  129.1608  161.9199 C.2     1  UNL1       -0.0289
     12 C         154.8321  127.9204  162.7124 C.2     1  UNL1       -0.0136
     13 C         155.1660  127.7980  164.1697 C.3     1  UNL1        0.0950
     14 N         155.2943  128.8861  165.1943 N.3     1  UNL1       -0.2935
     15 C         155.1204  130.3651  165.0146 C.3     1  UNL1        0.0735
     16 H         156.2410  128.7826  165.5596 H       1  UNL1        0.1236
@<TRIPOS>BOND
     1     1     2    1
     2     2     3   ar
     3     3     4   ar
     4     4     5   ar
     5     5     9    1
     6     9    10    1
     7    10    11    1
     8    11    12    2
     9    12    13    1
    10    13    14    1
    11    14    15    1
    12     5     6   ar
    13     6     7   ar
    14     7     8    1
    15     7     2   ar
    16    15     9    1
    17    14    16    1
@<TRIPOS>MOLECULE
*****
 16 17 0 0 0
SMALL
GASTEIGER

@<TRIPOS>ATOM
      1 CL        145.5915  141.5699  163.2164 Cl      1  UNL1       -0.0814
      2 C         144.5942  141.5382  164.3363 C.ar    1  UNL1        0.0682
      3 C         144.3574  142.7660  165.1648 C.ar    1  UNL1        0.0119
      4 C         143.3600  142.7342  166.2848 C.ar    1  UNL1       -0.0033
      5 C         142.5996  141.4746  166.5763 C.ar    1  UNL1       -0.0199
      6 C         142.8364  140.2468  165.7479 C.ar    1  UNL1        0.0080
      7 C         143.8337  140.2785  164.6279 C.ar    1  UNL1        0.0679
      8 CL        144.0705  139.0506  163.7994 Cl      1  UNL1       -0.0814
      9 C         141.6022  141.4428  167.6962 C.3     1  UNL1        0.0424
     10 C         141.4817  142.7059  168.4964 C.3     1  UNL1        0.0315
     11 C         140.5864  142.9903  169.6659 C.2     1  UNL1       -0.0289
     12 C         139.5907  142.0819  170.3240 C.2     1  UNL1       -0.0136
     13 C         139.2442  140.6647  169.9753 C.3     1  UNL1        0.0950
     14 N         139.8078  139.8060  168.8823 N.3     1  UNL1       -0.2935
     15 C         140.8573  140.1523  167.8680 C.3     1  UNL1        0.0735
     16 H         138.9965  139.5332  168.3275 H       1  UNL1        0.1236
@<TRIPOS>BOND
     1     1     2    1
     2     2     3   ar
     3     3     4   ar
     4     4     5   ar
     5     5     9    1
     6     9    10    1
     7    10    11    1
     8    11    12    2
     9    12    13    1
    10    13    14    1
    11    14    15    1
    12     5     6   ar
    13     6     7   ar
    14     7     8    1
    15     7     2   ar
    16    15     9    1
    17    14    16    1
@<TRIPOS>MOLECULE
*****
 16 17 0 0 0
SMALL
GASTEIGER

@<TRIPOS>ATOM
      1 CL        142.3741  140.2848  170.3426 Cl      1  UNL1       -0.0814
      2 C         141.7089  140.0419  169.0203 C.ar    1  UNL1        0.0682
      3 C         142.5291  139.6389  167.8309 C.ar    1  UNL1        0.0119
      4 C         141.8637  139.3960  166.5085 C.ar    1  UNL1       -0.0033
      5 C         140.3783  139.5563  166.3758 C.ar    1  UNL1       -0.0199
      6 C         139.5581  139.9593  167.5652 C.ar    1  UNL1        0.0080
      7 C         140.2233  140.2022  168.8875 C.ar    1  UNL1        0.0679
      8 CL        139.4031  140.6053  170.0770 Cl      1  UNL1       -0.0814
      9 C         139.7129  139.3135  165.0535 C.3     1  UNL1        0.0424
     10 C         140.1347  138.0679  164.3318 C.3     1  UNL1        0.0315
     11 C         139.6614  137.5495  163.0061 C.2     1  UNL1       -0.0289
     12 C         138.6497  138.1486  162.0748 C.2     1  UNL1       -0.0136
     13 C         137.8612  139.4141  162.2390 C.3     1  UNL1        0.0950
     14 N         137.8898  140.3929  163.3753 N.3     1  UNL1       -0.2935
     15 C         138.7139  140.3481  164.6278 C.3     1  UNL1        0.0735
     16 H         136.9253  140.4297  163.7052 H       1  UNL1        0.1236
@<TRIPOS>BOND
     1     1     2    1
     2     2     3   ar
     3     3     4   ar
     4     4     5   ar
     5     5     9    1
     6     9    10    1
     7    10    11    1
     8    11    12    2
     9    12    13    1
    10    13    14    1
    11    14    15    1
    12     5     6   ar
    13     6     7   ar
    14     7     8    1
    15     7     2   ar
    16    15     9    1
    17    14    16    1
