@<TRIPOS>MOLECULE
*****
 30 33 0 0 0
SMALL
GASTEIGER

@<TRIPOS>ATOM
      1 C         138.3328  142.5158  163.2436 C.2     1  UNL1        0.2855
      2 O         137.0467  141.8483  162.8557 O.2     1  UNL1       -0.2665
      3 N         139.0874  142.0455  164.4516 N.am    1  UNL1       -0.2735
      4 C         138.5560  140.9076  165.2719 C.3     1  UNL1        0.0941
      5 C         139.3105  140.4373  166.4799 C.3     1  UNL1        0.0259
      6 C         140.5966  141.1048  166.8677 C.3     1  UNL1        0.0258
      7 C         141.1281  142.2427  166.0474 C.3     1  UNL1        0.0259
      8 C         140.3735  142.7130  164.8394 C.3     1  UNL1        0.0941
      9 C         141.8456  142.6432  159.8730 C.ar    1  UNL1        0.0861
     10 C         142.0512  144.0132  159.2979 C.ar    1  UNL1        0.0150
     11 C         141.2122  145.1610  159.7761 C.ar    1  UNL1        0.0400
     12 C         140.1677  144.9388  160.8295 C.ar    1  UNL1        0.1705
     13 N         139.1970  145.8704  161.4927 N.ar    1  UNL1       -0.1283
     14 N         138.3915  145.0761  162.4778 N.ar    1  UNL1       -0.1236
     15 C         138.8644  143.6536  162.4233 C.ar    1  UNL1        0.2244
     16 N         139.9621  143.5688  161.4046 N.ar    1  UNL1       -0.2681
     17 C         140.8011  142.4210  160.9264 C.ar    1  UNL1        0.0933
     18 N         143.5235  140.3475  158.9166 N.1     1  UNL1       -0.1908
     19 C         142.6846  141.4954  159.3948 C.1     1  UNL1        0.1019
     20 C         141.3512  140.6344  168.0758 C.ar    1  UNL1       -0.0163
     21 C         142.1096  139.3411  168.0297 C.ar    1  UNL1       -0.0042
     22 C         142.8642  138.8708  169.2378 C.ar    1  UNL1        0.0020
     23 C         142.8604  139.6938  170.4919 C.ar    1  UNL1        0.0296
     24 C         142.1019  140.9871  170.5379 C.ar    1  UNL1        0.1437
     25 F         142.0980  141.8101  171.7920 F       1  UNL1       -0.2042
     26 C         141.3473  141.4575  169.3299 C.ar    1  UNL1        0.0948
     27 C         140.5888  142.7507  169.3758 C.3     1  UNL1        0.4204
     28 F         139.8303  144.0440  169.4218 F       1  UNL1       -0.1658
     29 F         139.3304  142.0012  169.6995 F       1  UNL1       -0.1658
     30 F         141.8472  143.5003  169.0521 F       1  UNL1       -0.1658
@<TRIPOS>BOND
     1    18    19    3
     2    19     9    1
     3     9    10   ar
     4    10    11   ar
     5    11    12   ar
     6    12    13   ar
     7    13    14   ar
     8    14    15   ar
     9    15     1    1
    10     1     2    2
    11     1     3   am
    12     3     4    1
    13     4     5    1
    14     5     6    1
    15     6    20    1
    16    20    21   ar
    17    21    22   ar
    18    22    23   ar
    19    23    24   ar
    20    24    25    1
    21    24    26   ar
    22    26    27    1
    23    27    28    1
    24    27    29    1
    25    27    30    1
    26     6     7    1
    27     7     8    1
    28    15    16   ar
    29    16    17   ar
    30    17     9   ar
    31    16    12   ar
    32     8     3    1
    33    26    20   ar
@<TRIPOS>MOLECULE
*****
 30 33 0 0 0
SMALL
GASTEIGER

@<TRIPOS>ATOM
      1 C         142.8043  144.6446  163.1581 C.2     1  UNL1        0.2855
      2 O         144.0891  145.3830  162.9259 O.2     1  UNL1       -0.2665
      3 N         142.6636  143.7395  164.3460 N.am    1  UNL1       -0.2735
      4 C         143.8076  143.5729  165.3017 C.3     1  UNL1        0.0941
      5 C         143.6668  142.6679  166.4896 C.3     1  UNL1        0.0259
      6 C         142.3820  141.9294  166.7218 C.3     1  UNL1        0.0258
      7 C         141.2379  142.0961  165.7660 C.3     1  UNL1        0.0259
      8 C         141.3787  143.0011  164.5781 C.3     1  UNL1        0.0941
      9 C         141.9958  142.6648  158.7828 C.ar    1  UNL1        0.0861
     10 C         140.7039  143.1167  158.1691 C.ar    1  UNL1        0.0150
     11 C         139.8207  144.0805  158.9047 C.ar    1  UNL1        0.0400
     12 C         140.2295  144.5924  160.2541 C.ar    1  UNL1        0.1705
     13 N         139.5699  145.5423  161.2093 N.ar    1  UNL1       -0.1283
     14 N         140.4541  145.6775  162.4134 N.ar    1  UNL1       -0.1236
     15 C         141.6602  144.8111  162.2024 C.ar    1  UNL1        0.2244
     16 N         141.5214  144.1405  160.8678 N.ar    1  UNL1       -0.2681
     17 C         142.4045  143.1767  160.1322 C.ar    1  UNL1        0.0933
     18 N         143.7620  140.7372  157.3115 N.1     1  UNL1       -0.1908
     19 C         142.8789  141.7010  158.0472 C.1     1  UNL1        0.1019
     20 C         142.2413  141.0244  167.9097 C.ar    1  UNL1       -0.0163
     21 C         142.8086  139.6366  167.8666 C.ar    1  UNL1       -0.0042
     22 C         142.6679  138.7315  169.0545 C.ar    1  UNL1        0.0020
     23 C         141.9598  139.2144  170.2855 C.ar    1  UNL1        0.0296
     24 C         141.3924  140.6023  170.3286 C.ar    1  UNL1        0.1437
     25 F         140.6842  141.0852  171.5597 F       1  UNL1       -0.2042
     26 C         141.5331  141.5074  169.1407 C.ar    1  UNL1        0.0948
     27 C         140.9658  142.8952  169.1838 C.3     1  UNL1        0.4204
     28 F         140.3985  144.2831  169.2269 F       1  UNL1       -0.1658
     29 F         142.2638  143.4087  169.7331 F       1  UNL1       -0.1658
     30 F         139.6678  142.3818  168.6345 F       1  UNL1       -0.1658
@<TRIPOS>BOND
     1    18    19    3
     2    19     9    1
     3     9    10   ar
     4    10    11   ar
     5    11    12   ar
     6    12    13   ar
     7    13    14   ar
     8    14    15   ar
     9    15     1    1
    10     1     2    2
    11     1     3   am
    12     3     4    1
    13     4     5    1
    14     5     6    1
    15     6    20    1
    16    20    21   ar
    17    21    22   ar
    18    22    23   ar
    19    23    24   ar
    20    24    25    1
    21    24    26   ar
    22    26    27    1
    23    27    28    1
    24    27    29    1
    25    27    30    1
    26     6     7    1
    27     7     8    1
    28    15    16   ar
    29    16    17   ar
    30    17     9   ar
    31    16    12   ar
    32     8     3    1
    33    26    20   ar
@<TRIPOS>MOLECULE
*****
 30 33 0 0 0
SMALL
GASTEIGER

@<TRIPOS>ATOM
      1 C         142.5581  143.8225  162.3790 C.2     1  UNL1        0.2855
      2 O         143.9996  144.0014  162.0046 O.2     1  UNL1       -0.2665
      3 N         142.1902  143.4266  163.7782 N.am    1  UNL1       -0.2735
      4 C         143.2637  143.2094  164.8031 C.3     1  UNL1        0.0941
      5 C         142.8957  142.8135  166.2023 C.3     1  UNL1        0.0259
      6 C         141.4543  142.6346  166.5767 C.3     1  UNL1        0.0258
      7 C         140.3807  142.8517  165.5517 C.3     1  UNL1        0.0259
      8 C         140.7486  143.2477  164.1525 C.3     1  UNL1        0.0941
      9 C         139.5428  140.6733  160.2095 C.ar    1  UNL1        0.0861
     10 C         138.6144  141.3339  159.2341 C.ar    1  UNL1        0.0150
     11 C         138.6843  142.8167  159.0185 C.ar    1  UNL1        0.0400
     12 C         139.6826  143.6388  159.7784 C.ar    1  UNL1        0.1705
     13 N         139.9823  145.1086  159.7758 N.ar    1  UNL1       -0.1283
     14 N         141.0959  145.3563  160.7497 N.ar    1  UNL1       -0.1236
     15 C         141.4845  144.0396  161.3542 C.ar    1  UNL1        0.2244
     16 N         140.6110  142.9782  160.7538 N.ar    1  UNL1       -0.2681
     17 C         140.5411  141.4954  160.9694 C.ar    1  UNL1        0.0933
     18 N         139.4030  137.7077  160.6407 N.1     1  UNL1       -0.1908
     19 C         139.4729  139.1905  160.4251 C.1     1  UNL1        0.1019
     20 C         141.0863  142.2386  167.9759 C.ar    1  UNL1       -0.0163
     21 C         140.5455  143.2639  168.9279 C.ar    1  UNL1       -0.0042
     22 C         140.1776  142.8680  170.3271 C.ar    1  UNL1        0.0020
     23 C         140.3505  141.4467  170.7744 C.ar    1  UNL1        0.0296
     24 C         140.8914  140.4213  169.8223 C.ar    1  UNL1        0.1437
     25 F         141.0643  139.0000  170.2696 F       1  UNL1       -0.2042
     26 C         141.2593  140.8173  168.4231 C.ar    1  UNL1        0.0948
     27 C         141.8002  139.7921  167.4711 C.3     1  UNL1        0.4204
     28 F         142.3409  138.7668  166.5191 F       1  UNL1       -0.1658
     29 F         140.4231  139.5829  166.9142 F       1  UNL1       -0.1658
     30 F         143.1771  140.0012  168.0280 F       1  UNL1       -0.1658
@<TRIPOS>BOND
     1    18    19    3
     2    19     9    1
     3     9    10   ar
     4    10    11   ar
     5    11    12   ar
     6    12    13   ar
     7    13    14   ar
     8    14    15   ar
     9    15     1    1
    10     1     2    2
    11     1     3   am
    12     3     4    1
    13     4     5    1
    14     5     6    1
    15     6    20    1
    16    20    21   ar
    17    21    22   ar
    18    22    23   ar
    19    23    24   ar
    20    24    25    1
    21    24    26   ar
    22    26    27    1
    23    27    28    1
    24    27    29    1
    25    27    30    1
    26     6     7    1
    27     7     8    1
    28    15    16   ar
    29    16    17   ar
    30    17     9   ar
    31    16    12   ar
    32     8     3    1
    33    26    20   ar
@<TRIPOS>MOLECULE
*****
 30 33 0 0 0
SMALL
GASTEIGER

@<TRIPOS>ATOM
      1 C         138.3365  142.2625  162.4820 C.2     1  UNL1        0.2855
      2 O         137.3434  141.4405  161.7152 O.2     1  UNL1       -0.2665
      3 N         138.7825  141.8214  163.8445 N.am    1  UNL1       -0.2735
      4 C         138.2354  140.5583  164.4404 C.3     1  UNL1        0.0941
      5 C         138.6813  140.1172  165.8029 C.3     1  UNL1        0.0259
      6 C         139.6744  140.9392  166.5697 C.3     1  UNL1        0.0258
      7 C         140.2216  142.2024  165.9738 C.3     1  UNL1        0.0259
      8 C         139.7756  142.6435  164.6112 C.3     1  UNL1        0.0941
      9 C         141.6659  142.9579  158.9965 C.ar    1  UNL1        0.0861
     10 C         141.9136  144.4091  158.7092 C.ar    1  UNL1        0.0150
     11 C         141.1642  145.4627  159.4696 C.ar    1  UNL1        0.0400
     12 C         140.1671  145.0652  160.5173 C.ar    1  UNL1        0.1705
     13 N         139.2846  145.8738  161.4213 N.ar    1  UNL1       -0.1283
     14 N         138.4915  144.9224  162.2674 N.ar    1  UNL1       -0.1236
     15 C         138.8837  143.5257  161.8862 C.ar    1  UNL1        0.2244
     16 N         139.9193  143.6140  160.8046 N.ar    1  UNL1       -0.2681
     17 C         140.6687  142.5603  160.0442 C.ar    1  UNL1        0.0933
     18 N         143.1646  140.8505  157.4757 N.1     1  UNL1       -0.1908
     19 C         142.4152  141.9042  158.2361 C.1     1  UNL1        0.1019
     20 C         140.1204  140.4981  167.9322 C.ar    1  UNL1       -0.0163
     21 C         139.1572  140.5253  169.0818 C.ar    1  UNL1       -0.0042
     22 C         139.6032  140.0842  170.4444 C.ar    1  UNL1        0.0020
     23 C         141.0122  139.6159  170.6573 C.ar    1  UNL1        0.0296
     24 C         141.9754  139.5888  169.5076 C.ar    1  UNL1        0.1437
     25 F         143.3844  139.1205  169.7205 F       1  UNL1       -0.2042
     26 C         141.5294  140.0299  168.1451 C.ar    1  UNL1        0.0948
     27 C         142.4925  140.0028  166.9954 C.3     1  UNL1        0.4204
     28 F         143.4556  139.9757  165.8457 F       1  UNL1       -0.1658
     29 F         143.0573  141.3202  167.4376 F       1  UNL1       -0.1658
     30 F         141.9277  138.6854  166.5532 F       1  UNL1       -0.1658
@<TRIPOS>BOND
     1    18    19    3
     2    19     9    1
     3     9    10   ar
     4    10    11   ar
     5    11    12   ar
     6    12    13   ar
     7    13    14   ar
     8    14    15   ar
     9    15     1    1
    10     1     2    2
    11     1     3   am
    12     3     4    1
    13     4     5    1
    14     5     6    1
    15     6    20    1
    16    20    21   ar
    17    21    22   ar
    18    22    23   ar
    19    23    24   ar
    20    24    25    1
    21    24    26   ar
    22    26    27    1
    23    27    28    1
    24    27    29    1
    25    27    30    1
    26     6     7    1
    27     7     8    1
    28    15    16   ar
    29    16    17   ar
    30    17     9   ar
    31    16    12   ar
    32     8     3    1
    33    26    20   ar
@<TRIPOS>MOLECULE
*****
 30 33 0 0 0
SMALL
GASTEIGER

@<TRIPOS>ATOM
      1 C         139.9661  145.3981  160.8691 C.2     1  UNL1        0.2855
      2 O         139.1826  146.6765  160.8233 O.2     1  UNL1       -0.2665
      3 N         139.9717  144.5661  162.1171 N.am    1  UNL1       -0.2735
      4 C         139.1938  145.0123  163.3195 C.3     1  UNL1        0.0941
      5 C         139.1994  144.1803  164.5676 C.3     1  UNL1        0.0259
      6 C         139.9829  142.9019  164.6133 C.3     1  UNL1        0.0258
      7 C         140.7608  142.4557  163.4108 C.3     1  UNL1        0.0259
      8 C         140.7552  143.2878  162.1627 C.3     1  UNL1        0.0941
      9 C         138.9018  142.1270  157.4218 C.ar    1  UNL1        0.0861
     10 C         139.9833  141.9949  156.3909 C.ar    1  UNL1        0.0150
     11 C         141.2265  142.8274  156.4971 C.ar    1  UNL1        0.0400
     12 C         141.3883  143.7921  157.6343 C.ar    1  UNL1        0.1705
     13 N         142.4939  144.7380  157.9985 N.ar    1  UNL1       -0.1283
     14 N         142.0957  145.4548  159.2546 N.ar    1  UNL1       -0.1236
     15 C         140.7440  144.9519  159.6667 C.ar    1  UNL1        0.2244
     16 N         140.3068  143.9242  158.6653 N.ar    1  UNL1       -0.2681
     17 C         139.0635  143.0917  158.5590 C.ar    1  UNL1        0.0933
     18 N         136.4153  140.4620  157.2093 N.1     1  UNL1       -0.1908
     19 C         137.6586  141.2945  157.3156 C.1     1  UNL1        0.1019
     20 C         139.9884  142.0699  165.8613 C.ar    1  UNL1       -0.0163
     21 C         140.7342  142.5420  167.0741 C.ar    1  UNL1       -0.0042
     22 C         140.7398  141.7100  168.3222 C.ar    1  UNL1        0.0020
     23 C         139.9996  140.4058  168.3574 C.ar    1  UNL1        0.0296
     24 C         139.2538  139.9337  167.1446 C.ar    1  UNL1        0.1437
     25 F         138.5136  138.6295  167.1798 F       1  UNL1       -0.2042
     26 C         139.2482  140.7657  165.8965 C.ar    1  UNL1        0.0948
     27 C         138.5024  140.2937  164.6837 C.3     1  UNL1        0.4204
     28 F         137.7566  139.8217  163.4709 F       1  UNL1       -0.1658
     29 F         137.4261  141.3033  164.9526 F       1  UNL1       -0.1658
     30 F         139.5787  139.2841  164.4148 F       1  UNL1       -0.1658
@<TRIPOS>BOND
     1    18    19    3
     2    19     9    1
     3     9    10   ar
     4    10    11   ar
     5    11    12   ar
     6    12    13   ar
     7    13    14   ar
     8    14    15   ar
     9    15     1    1
    10     1     2    2
    11     1     3   am
    12     3     4    1
    13     4     5    1
    14     5     6    1
    15     6    20    1
    16    20    21   ar
    17    21    22   ar
    18    22    23   ar
    19    23    24   ar
    20    24    25    1
    21    24    26   ar
    22    26    27    1
    23    27    28    1
    24    27    29    1
    25    27    30    1
    26     6     7    1
    27     7     8    1
    28    15    16   ar
    29    16    17   ar
    30    17     9   ar
    31    16    12   ar
    32     8     3    1
    33    26    20   ar
@<TRIPOS>MOLECULE
*****
 30 33 0 0 0
SMALL
GASTEIGER

@<TRIPOS>ATOM
      1 C         138.3752  139.6388  162.2291 C.2     1  UNL1        0.2855
      2 O         137.7927  138.3440  161.7451 O.2     1  UNL1       -0.2665
      3 N         138.8170  139.7756  163.6560 N.am    1  UNL1       -0.2735
      4 C         138.6764  138.6176  164.5990 C.3     1  UNL1        0.0941
      5 C         139.1182  138.7544  166.0259 C.3     1  UNL1        0.0259
      6 C         139.7007  140.0492  166.5098 C.3     1  UNL1        0.0258
      7 C         139.8413  141.2072  165.5668 C.3     1  UNL1        0.0259
      8 C         139.3995  141.0705  164.1399 C.3     1  UNL1        0.0941
      9 C         141.3041  140.2837  158.3921 C.ar    1  UNL1        0.0861
     10 C         141.1069  141.6132  157.7262 C.ar    1  UNL1        0.0150
     11 C         140.0888  142.5762  158.2609 C.ar    1  UNL1        0.0400
     12 C         139.2677  142.2097  159.4615 C.ar    1  UNL1        0.1705
     13 N         138.1969  142.9481  160.2086 N.ar    1  UNL1       -0.1283
     14 N         137.7322  142.0749  161.3363 N.ar    1  UNL1       -0.1236
     15 C         138.5158  140.7969  161.2861 C.ar    1  UNL1        0.2244
     16 N         139.4648  140.8802  160.1274 N.ar    1  UNL1       -0.2681
     17 C         140.4830  139.9172  159.5927 C.ar    1  UNL1        0.0933
     18 N         143.3404  138.3576  157.3227 N.1     1  UNL1       -0.1908
     19 C         142.3222  139.3206  157.8574 C.1     1  UNL1        0.1019
     20 C         140.1426  140.1859  167.9367 C.ar    1  UNL1       -0.0163
     21 C         139.1239  140.2210  169.0372 C.ar    1  UNL1       -0.0042
     22 C         139.5657  140.3577  170.4641 C.ar    1  UNL1        0.0020
     23 C         141.0262  140.4594  170.7905 C.ar    1  UNL1        0.0296
     24 C         142.0450  140.4244  169.6900 C.ar    1  UNL1        0.1437
     25 F         143.5055  140.5261  170.0164 F       1  UNL1       -0.2042
     26 C         141.6031  140.2876  168.2631 C.ar    1  UNL1        0.0948
     27 C         142.6217  140.2526  167.1626 C.3     1  UNL1        0.4204
     28 F         143.6403  140.2176  166.0620 F       1  UNL1       -0.1658
     29 F         142.6554  141.7522  167.1460 F       1  UNL1       -0.1658
     30 F         142.5881  138.7531  167.1791 F       1  UNL1       -0.1658
@<TRIPOS>BOND
     1    18    19    3
     2    19     9    1
     3     9    10   ar
     4    10    11   ar
     5    11    12   ar
     6    12    13   ar
     7    13    14   ar
     8    14    15   ar
     9    15     1    1
    10     1     2    2
    11     1     3   am
    12     3     4    1
    13     4     5    1
    14     5     6    1
    15     6    20    1
    16    20    21   ar
    17    21    22   ar
    18    22    23   ar
    19    23    24   ar
    20    24    25    1
    21    24    26   ar
    22    26    27    1
    23    27    28    1
    24    27    29    1
    25    27    30    1
    26     6     7    1
    27     7     8    1
    28    15    16   ar
    29    16    17   ar
    30    17     9   ar
    31    16    12   ar
    32     8     3    1
    33    26    20   ar
@<TRIPOS>MOLECULE
*****
 30 33 0 0 0
SMALL
GASTEIGER

@<TRIPOS>ATOM
      1 C         139.9904  138.5521  161.7442 C.2     1  UNL1        0.2855
      2 O         138.7505  137.9934  161.1113 O.2     1  UNL1       -0.2665
      3 N         139.9413  139.0892  163.1439 N.am    1  UNL1       -0.2735
      4 C         138.6524  139.0675  163.9108 C.3     1  UNL1        0.0941
      5 C         138.6033  139.6045  165.3105 C.3     1  UNL1        0.0259
      6 C         139.8432  140.1632  165.9434 C.3     1  UNL1        0.0258
      7 C         141.1322  140.1849  165.1764 C.3     1  UNL1        0.0259
      8 C         141.1812  139.6479  163.7767 C.3     1  UNL1        0.0941
      9 C         142.4269  142.2485  159.7152 C.ar    1  UNL1        0.0861
     10 C         143.6905  141.8099  159.0364 C.ar    1  UNL1        0.0150
     11 C         144.0780  140.3608  159.0366 C.ar    1  UNL1        0.0400
     12 C         143.2019  139.3503  159.7157 C.ar    1  UNL1        0.1705
     13 N         143.3240  137.8642  159.8790 N.ar    1  UNL1       -0.1283
     14 N         142.1358  137.3843  160.6588 N.ar    1  UNL1       -0.1236
     15 C         141.2794  138.5738  160.9774 C.ar    1  UNL1        0.2244
     16 N         141.9383  139.7889  160.3945 N.ar    1  UNL1       -0.2681
     17 C         141.5508  141.2380  160.3943 C.ar    1  UNL1        0.0933
     18 N         141.6519  145.1466  159.7146 N.1     1  UNL1       -0.1908
     19 C         142.0394  143.6975  159.7149 C.1     1  UNL1        0.1019
     20 C         139.7941  140.7003  167.3431 C.ar    1  UNL1       -0.0163
     21 C         139.2130  139.8665  168.4463 C.ar    1  UNL1       -0.0042
     22 C         139.1639  140.4035  169.8460 C.ar    1  UNL1        0.0020
     23 C         139.6959  141.7743  170.1425 C.ar    1  UNL1        0.0296
     24 C         140.2770  142.6081  169.0392 C.ar    1  UNL1        0.1437
     25 F         140.8090  143.9789  169.3357 F       1  UNL1       -0.2042
     26 C         140.3261  142.0711  167.6395 C.ar    1  UNL1        0.0948
     27 C         140.9071  142.9048  166.5362 C.3     1  UNL1        0.4204
     28 F         141.4881  143.7386  165.4329 F       1  UNL1       -0.1658
     29 F         139.5244  143.2768  166.0891 F       1  UNL1       -0.1658
     30 F         142.2898  142.5329  166.9832 F       1  UNL1       -0.1658
@<TRIPOS>BOND
     1    18    19    3
     2    19     9    1
     3     9    10   ar
     4    10    11   ar
     5    11    12   ar
     6    12    13   ar
     7    13    14   ar
     8    14    15   ar
     9    15     1    1
    10     1     2    2
    11     1     3   am
    12     3     4    1
    13     4     5    1
    14     5     6    1
    15     6    20    1
    16    20    21   ar
    17    21    22   ar
    18    22    23   ar
    19    23    24   ar
    20    24    25    1
    21    24    26   ar
    22    26    27    1
    23    27    28    1
    24    27    29    1
    25    27    30    1
    26     6     7    1
    27     7     8    1
    28    15    16   ar
    29    16    17   ar
    30    17     9   ar
    31    16    12   ar
    32     8     3    1
    33    26    20   ar
@<TRIPOS>MOLECULE
*****
 30 33 0 0 0
SMALL
GASTEIGER

@<TRIPOS>ATOM
      1 C         139.2188  143.3842  161.7449 C.2     1  UNL1        0.2855
      2 O         137.7927  143.1875  161.3235 O.2     1  UNL1       -0.2665
      3 N         139.6480  143.0155  163.1341 N.am    1  UNL1       -0.2735
      4 C         138.6512  142.4501  164.1019 C.3     1  UNL1        0.0941
      5 C         139.0804  142.0814  165.4911 C.3     1  UNL1        0.0259
      6 C         140.5064  142.2781  165.9125 C.3     1  UNL1        0.0258
      7 C         141.5033  142.8436  164.9447 C.3     1  UNL1        0.0259
      8 C         141.0741  143.2122  163.5555 C.3     1  UNL1        0.0941
      9 C         142.6875  141.2067  159.1100 C.ar    1  UNL1        0.0861
     10 C         143.4655  142.1693  158.2627 C.ar    1  UNL1        0.0150
     11 C         143.1343  143.6320  158.2926 C.ar    1  UNL1        0.0400
     12 C         142.0251  144.1320  159.1698 C.ar    1  UNL1        0.1705
     13 N         141.4746  145.5072  159.4061 N.ar    1  UNL1       -0.1283
     14 N         140.3563  145.3944  160.3995 N.ar    1  UNL1       -0.1236
     15 C         140.2157  143.9496  160.7772 C.ar    1  UNL1        0.2244
     16 N         141.2471  143.1694  160.0172 N.ar    1  UNL1       -0.2681
     17 C         141.5783  141.7067  159.9873 C.ar    1  UNL1        0.0933
     18 N         143.3500  138.2814  159.0502 N.1     1  UNL1       -0.1908
     19 C         143.0188  139.7440  159.0801 C.1     1  UNL1        0.1019
     20 C         140.9356  141.9094  167.3017 C.ar    1  UNL1       -0.0163
     21 C         140.7475  142.8823  168.4278 C.ar    1  UNL1       -0.0042
     22 C         141.1767  142.5136  169.8170 C.ar    1  UNL1        0.0020
     23 C         141.7940  141.1720  170.0801 C.ar    1  UNL1        0.0296
     24 C         141.9821  140.1991  168.9539 C.ar    1  UNL1        0.1437
     25 F         142.5994  138.8576  169.2170 F       1  UNL1       -0.2042
     26 C         141.5529  140.5678  167.5647 C.ar    1  UNL1        0.0948
     27 C         141.7410  139.5951  166.4385 C.3     1  UNL1        0.4204
     28 F         141.9290  138.6222  165.3124 F       1  UNL1       -0.1658
     29 F         140.3234  139.1323  166.6016 F       1  UNL1       -0.1658
     30 F         143.1585  140.0578  166.2755 F       1  UNL1       -0.1658
@<TRIPOS>BOND
     1    18    19    3
     2    19     9    1
     3     9    10   ar
     4    10    11   ar
     5    11    12   ar
     6    12    13   ar
     7    13    14   ar
     8    14    15   ar
     9    15     1    1
    10     1     2    2
    11     1     3   am
    12     3     4    1
    13     4     5    1
    14     5     6    1
    15     6    20    1
    16    20    21   ar
    17    21    22   ar
    18    22    23   ar
    19    23    24   ar
    20    24    25    1
    21    24    26   ar
    22    26    27    1
    23    27    28    1
    24    27    29    1
    25    27    30    1
    26     6     7    1
    27     7     8    1
    28    15    16   ar
    29    16    17   ar
    30    17     9   ar
    31    16    12   ar
    32     8     3    1
    33    26    20   ar
@<TRIPOS>MOLECULE
*****
 30 33 0 0 0
SMALL
GASTEIGER

@<TRIPOS>ATOM
      1 C         139.7308  144.3077  162.9015 C.2     1  UNL1        0.2855
      2 O         138.4070  145.0121  162.9381 O.2     1  UNL1       -0.2665
      3 N         140.2908  143.6980  164.1524 N.am    1  UNL1       -0.2735
      4 C         139.5270  143.7926  165.4398 C.3     1  UNL1        0.0941
      5 C         140.0870  143.1830  166.6907 C.3     1  UNL1        0.0259
      6 C         141.4109  142.4786  166.6541 C.3     1  UNL1        0.0258
      7 C         142.1746  142.3839  165.3665 C.3     1  UNL1        0.0259
      8 C         141.6147  142.9936  164.1157 C.3     1  UNL1        0.0941
      9 C         140.5148  140.5262  159.9346 C.ar    1  UNL1        0.0861
     10 C         141.3466  140.8866  158.7396 C.ar    1  UNL1        0.0150
     11 C         141.8390  142.2927  158.5649 C.ar    1  UNL1        0.0400
     12 C         141.4996  143.3384  159.5853 C.ar    1  UNL1        0.1705
     13 N         141.8406  144.7960  159.6804 N.ar    1  UNL1       -0.1283
     14 N         141.2195  145.3365  160.9342 N.ar    1  UNL1       -0.1236
     15 C         140.4946  144.2130  161.6140 C.ar    1  UNL1        0.2244
     16 N         140.6677  142.9780  160.7803 N.ar    1  UNL1       -0.2681
     17 C         140.1754  141.5720  160.9550 C.ar    1  UNL1        0.0933
     18 N         139.5300  137.7141  160.2840 N.1     1  UNL1       -0.1908
     19 C         140.0224  139.1202  160.1093 C.1     1  UNL1        0.1019
     20 C         141.9709  141.8689  167.9050 C.ar    1  UNL1       -0.0163
     21 C         143.1529  142.4974  168.5815 C.ar    1  UNL1       -0.0042
     22 C         143.7129  141.8877  169.8324 C.ar    1  UNL1        0.0020
     23 C         143.0908  140.6495  170.4067 C.ar    1  UNL1        0.0296
     24 C         141.9088  140.0209  169.7301 C.ar    1  UNL1        0.1437
     25 F         141.2867  138.7826  170.3044 F       1  UNL1       -0.2042
     26 C         141.3488  140.6306  168.4792 C.ar    1  UNL1        0.0948
     27 C         140.1668  140.0021  167.8026 C.3     1  UNL1        0.4204
     28 F         138.9847  139.3737  167.1261 F       1  UNL1       -0.1658
     29 F         139.2479  140.6925  168.7667 F       1  UNL1       -0.1658
     30 F         141.0855  139.3118  166.8386 F       1  UNL1       -0.1658
@<TRIPOS>BOND
     1    18    19    3
     2    19     9    1
     3     9    10   ar
     4    10    11   ar
     5    11    12   ar
     6    12    13   ar
     7    13    14   ar
     8    14    15   ar
     9    15     1    1
    10     1     2    2
    11     1     3   am
    12     3     4    1
    13     4     5    1
    14     5     6    1
    15     6    20    1
    16    20    21   ar
    17    21    22   ar
    18    22    23   ar
    19    23    24   ar
    20    24    25    1
    21    24    26   ar
    22    26    27    1
    23    27    28    1
    24    27    29    1
    25    27    30    1
    26     6     7    1
    27     7     8    1
    28    15    16   ar
    29    16    17   ar
    30    17     9   ar
    31    16    12   ar
    32     8     3    1
    33    26    20   ar
