@<TRIPOS>MOLECULE
*****
 35 39 0 0 0
SMALL
GASTEIGER

@<TRIPOS>ATOM
      1 C         140.6697  142.2936  161.8910 C.ar    1  UNL1        0.1458
      2 N         141.7058  143.0647  161.1281 N.ar    1  UNL1       -0.2249
      3 C         142.5774  142.3636  160.1288 C.ar    1  UNL1        0.1260
      4 C         143.6758  142.8570  159.2342 C.ar    1  UNL1        0.1212
      5 N         144.1901  141.6898  158.4449 N.ar    1  UNL1       -0.2265
      6 N         143.4097  140.4750  158.8515 N.ar    1  UNL1       -0.1586
      7 C         142.4130  140.8915  159.8923 C.ar    1  UNL1        0.1762
      8 C         141.3768  140.1205  160.6551 C.ar    1  UNL1        0.2829
      9 O         141.2124  138.6484  160.4187 O.2     1  UNL1       -0.2652
     10 N         140.5052  140.8216  161.6545 N.ar    1  UNL1       -0.2793
     11 C         141.7488  142.9742  164.6061 C.3     1  UNL1        0.0311
     12 C         140.3375  143.3350  164.2480 C.ar    1  UNL1       -0.0189
     13 C         139.4659  144.0360  165.2473 C.ar    1  UNL1       -0.0042
     14 C         138.0547  144.3968  164.8891 C.ar    1  UNL1       -0.0003
     15 C         137.5151  144.0564  163.5315 C.ar    1  UNL1        0.0001
     16 C         138.3867  143.3554  162.5322 C.ar    1  UNL1        0.0027
     17 C         139.7980  142.9947  162.8904 C.ar    1  UNL1        0.0303
     18 C         145.2916  141.7301  157.4274 C.ar    1  UNL1        0.0829
     19 C         146.4341  142.6872  157.5965 C.ar    1  UNL1        0.0198
     20 C         147.5355  142.7276  156.5790 C.ar    1  UNL1        0.0118
     21 C         147.4945  141.8108  155.3925 C.ar    1  UNL1        0.0685
     22 C         146.3520  140.8537  155.2234 C.ar    1  UNL1        0.0118
     23 C         145.2505  140.8134  156.2409 C.ar    1  UNL1        0.0198
     24 C         148.5959  141.8512  154.3750 C.1     1  UNL1        0.1004
     25 N         149.6973  141.8916  153.3577 N.1     1  UNL1       -0.1908
     26 C         139.4691  140.0504  162.4174 C.3     1  UNL1        0.1119
     27 C         139.5909  139.8991  163.9047 C.3     1  UNL1        0.0388
     28 C         138.3808  140.0592  164.7765 C.3     1  UNL1        0.0048
     29 C         138.5026  139.9079  166.2638 C.3     1  UNL1        0.0174
     30 C         139.8347  139.5964  166.8794 C.3     1  UNL1        0.0720
     31 N         141.0448  139.4364  166.0076 N.3     1  UNL1       -0.2739
     32 C         140.9228  139.5877  164.5202 C.3     1  UNL1        0.0739
     33 C         142.3767  139.1249  166.6232 C.3     1  UNL1        0.0576
     34 C         143.4136  138.3838  165.8324 C.3     1  UNL1        0.0173
     35 C         142.6717  139.5547  168.0298 C.3     1  UNL1        0.0173
@<TRIPOS>BOND
     1    11    12    1
     2    12    13   ar
     3    13    14   ar
     4    14    15   ar
     5    15    16   ar
     6    16    17   ar
     7    17     1    1
     8     1     2   ar
     9     2     3   ar
    10     3     4   ar
    11     4     5   ar
    12     5    18    1
    13    18    19   ar
    14    19    20   ar
    15    20    21   ar
    16    21    24    1
    17    24    25    3
    18    21    22   ar
    19    22    23   ar
    20     5     6   ar
    21     6     7   ar
    22     7     8   ar
    23     8     9    2
    24     8    10   ar
    25    10    26    1
    26    26    27    1
    27    27    28    1
    28    28    29    1
    29    29    30    1
    30    30    31    1
    31    31    33    1
    32    33    34    1
    33    33    35    1
    34    31    32    1
    35    17    12   ar
    36    10     1   ar
    37    32    27    1
    38     7     3   ar
    39    23    18   ar
@<TRIPOS>MOLECULE
*****
 35 39 0 0 0
SMALL
GASTEIGER

@<TRIPOS>ATOM
      1 C         141.3726  142.2900  162.4304 C.ar    1  UNL1        0.1458
      2 N         141.8201  141.6562  161.1466 N.ar    1  UNL1       -0.2249
      3 C         140.8108  141.0464  160.2195 C.ar    1  UNL1        0.1260
      4 C         140.9525  140.3562  158.8954 C.ar    1  UNL1        0.1212
      5 N         139.5832  139.9536  158.4337 N.ar    1  UNL1       -0.2265
      6 N         138.5953  140.3951  159.4726 N.ar    1  UNL1       -0.1586
      7 C         139.3540  141.0705  160.5763 C.ar    1  UNL1        0.1762
      8 C         138.9066  141.7043  161.8600 C.ar    1  UNL1        0.2829
      9 O         137.4498  141.7284  162.2168 O.2     1  UNL1       -0.2652
     10 N         139.9159  142.3141  162.7871 N.ar    1  UNL1       -0.2793
     11 C         142.7760  140.5783  164.4554 C.3     1  UNL1        0.0311
     12 C         143.0837  142.0440  164.3700 C.ar    1  UNL1       -0.0189
     13 C         144.0930  142.6538  165.2970 C.ar    1  UNL1       -0.0042
     14 C         144.4007  144.1194  165.2115 C.ar    1  UNL1       -0.0003
     15 C         143.6990  144.9752  164.1990 C.ar    1  UNL1        0.0001
     16 C         142.6897  144.3655  163.2720 C.ar    1  UNL1        0.0027
     17 C         142.3820  142.8998  163.3575 C.ar    1  UNL1        0.0303
     18 C         139.2588  139.2356  157.1573 C.ar    1  UNL1        0.0829
     19 C         139.7182  137.8222  156.9542 C.ar    1  UNL1        0.0198
     20 C         139.3937  137.1043  155.6777 C.ar    1  UNL1        0.0118
     21 C         138.6099  137.7997  154.6044 C.ar    1  UNL1        0.0685
     22 C         138.1504  139.2131  154.8075 C.ar    1  UNL1        0.0118
     23 C         138.4749  139.9310  156.0840 C.ar    1  UNL1        0.0198
     24 C         138.2854  137.0817  153.3280 C.1     1  UNL1        0.1004
     25 N         137.9610  136.3637  152.0517 N.1     1  UNL1       -0.1908
     26 C         139.4684  142.9479  164.0709 C.3     1  UNL1        0.1119
     27 C         139.6340  142.2129  165.3678 C.3     1  UNL1        0.0388
     28 C         139.0894  140.8232  165.5172 C.3     1  UNL1        0.0048
     29 C         139.2550  140.0881  166.8142 C.3     1  UNL1        0.0174
     30 C         139.9652  140.7428  167.9619 C.3     1  UNL1        0.0720
     31 N         140.5098  142.1324  167.8126 N.3     1  UNL1       -0.2739
     32 C         140.3442  142.8674  166.5155 C.3     1  UNL1        0.0739
     33 C         141.2200  142.7870  168.9603 C.3     1  UNL1        0.0576
     34 C         140.4735  143.7125  169.8746 C.3     1  UNL1        0.0173
     35 C         142.6768  142.5159  169.1936 C.3     1  UNL1        0.0173
@<TRIPOS>BOND
     1    11    12    1
     2    12    13   ar
     3    13    14   ar
     4    14    15   ar
     5    15    16   ar
     6    16    17   ar
     7    17     1    1
     8     1     2   ar
     9     2     3   ar
    10     3     4   ar
    11     4     5   ar
    12     5    18    1
    13    18    19   ar
    14    19    20   ar
    15    20    21   ar
    16    21    24    1
    17    24    25    3
    18    21    22   ar
    19    22    23   ar
    20     5     6   ar
    21     6     7   ar
    22     7     8   ar
    23     8     9    2
    24     8    10   ar
    25    10    26    1
    26    26    27    1
    27    27    28    1
    28    28    29    1
    29    29    30    1
    30    30    31    1
    31    31    33    1
    32    33    34    1
    33    33    35    1
    34    31    32    1
    35    17    12   ar
    36    10     1   ar
    37    32    27    1
    38     7     3   ar
    39    23    18   ar
@<TRIPOS>MOLECULE
*****
 35 39 0 0 0
SMALL
GASTEIGER

@<TRIPOS>ATOM
      1 C         141.0493  142.2638  162.0027 C.ar    1  UNL1        0.1458
      2 N         141.7828  143.0281  160.9406 N.ar    1  UNL1       -0.2249
      3 C         142.7371  142.3162  160.0282 C.ar    1  UNL1        0.1260
      4 C         143.5957  142.8011  158.8978 C.ar    1  UNL1        0.1212
      5 N         144.3470  141.6246  158.3488 N.ar    1  UNL1       -0.2265
      6 N         143.9529  140.4126  159.1399 N.ar    1  UNL1       -0.1586
      7 C         142.9579  140.8401  160.1778 C.ar    1  UNL1        0.1762
      8 C         142.2243  140.0759  161.2399 C.ar    1  UNL1        0.2829
      9 O         142.4451  138.5998  161.3895 O.2     1  UNL1       -0.2652
     10 N         141.2700  140.7878  162.1523 N.ar    1  UNL1       -0.2793
     11 C         142.0714  143.6367  164.4665 C.3     1  UNL1        0.0311
     12 C         140.6060  143.6622  164.1470 C.ar    1  UNL1       -0.0189
     13 C         139.6517  144.3741  165.0594 C.ar    1  UNL1       -0.0042
     14 C         138.1863  144.3995  164.7399 C.ar    1  UNL1       -0.0003
     15 C         137.6753  143.7131  163.5080 C.ar    1  UNL1        0.0001
     16 C         138.6296  143.0012  162.5956 C.ar    1  UNL1        0.0027
     17 C         140.0949  142.9758  162.9151 C.ar    1  UNL1        0.0303
     18 C         145.3215  141.6548  157.2089 C.ar    1  UNL1        0.0829
     19 C         145.1045  140.7755  156.0132 C.ar    1  UNL1        0.0198
     20 C         146.0791  140.8057  154.8733 C.ar    1  UNL1        0.0118
     21 C         147.2706  141.7152  154.9290 C.ar    1  UNL1        0.0685
     22 C         147.4876  142.5945  156.1247 C.ar    1  UNL1        0.0118
     23 C         146.5130  142.5643  157.2646 C.ar    1  UNL1        0.0198
     24 C         148.2450  141.7454  153.7891 C.1     1  UNL1        0.1004
     25 N         149.2195  141.7755  152.6492 N.1     1  UNL1       -0.1908
     26 C         140.5365  140.0235  163.2143 C.3     1  UNL1        0.1119
     27 C         141.1117  139.9189  164.5956 C.3     1  UNL1        0.0388
     28 C         142.3677  139.1323  164.8276 C.3     1  UNL1        0.0048
     29 C         142.9428  139.0277  166.2089 C.3     1  UNL1        0.0174
     30 C         142.2620  139.7098  167.3585 C.3     1  UNL1        0.0720
     31 N         141.0060  140.4964  167.1266 N.3     1  UNL1       -0.2739
     32 C         140.4309  140.6009  165.7451 C.3     1  UNL1        0.0739
     33 C         140.3253  141.1784  168.2761 C.3     1  UNL1        0.0576
     34 C         139.4448  140.3910  169.2005 C.3     1  UNL1        0.0173
     35 C         140.5251  142.6480  168.5012 C.3     1  UNL1        0.0173
@<TRIPOS>BOND
     1    11    12    1
     2    12    13   ar
     3    13    14   ar
     4    14    15   ar
     5    15    16   ar
     6    16    17   ar
     7    17     1    1
     8     1     2   ar
     9     2     3   ar
    10     3     4   ar
    11     4     5   ar
    12     5    18    1
    13    18    19   ar
    14    19    20   ar
    15    20    21   ar
    16    21    24    1
    17    24    25    3
    18    21    22   ar
    19    22    23   ar
    20     5     6   ar
    21     6     7   ar
    22     7     8   ar
    23     8     9    2
    24     8    10   ar
    25    10    26    1
    26    26    27    1
    27    27    28    1
    28    28    29    1
    29    29    30    1
    30    30    31    1
    31    31    33    1
    32    33    34    1
    33    33    35    1
    34    31    32    1
    35    17    12   ar
    36    10     1   ar
    37    32    27    1
    38     7     3   ar
    39    23    18   ar
@<TRIPOS>MOLECULE
*****
 35 39 0 0 0
SMALL
GASTEIGER

@<TRIPOS>ATOM
      1 C         142.2472  141.4897  161.7314 C.ar    1  UNL1        0.1458
      2 N         143.0537  140.6913  160.7503 N.ar    1  UNL1       -0.2249
      3 C         142.3657  139.7649  159.7920 C.ar    1  UNL1        0.1260
      4 C         142.8926  138.8575  158.7201 C.ar    1  UNL1        0.1212
      5 N         141.7238  138.1686  158.0803 N.ar    1  UNL1       -0.2265
      6 N         140.4746  138.6502  158.7568 N.ar    1  UNL1       -0.1586
      7 C         140.8714  139.6368  159.8147 C.ar    1  UNL1        0.1762
      8 C         140.0650  140.4351  160.7957 C.ar    1  UNL1        0.2829
      9 O         138.5706  140.3071  160.8184 O.2     1  UNL1       -0.2652
     10 N         140.7529  141.3616  161.7540 N.ar    1  UNL1       -0.2793
     11 C         143.3555  140.4285  164.3093 C.3     1  UNL1        0.0311
     12 C         143.4893  141.8856  163.9788 C.ar    1  UNL1       -0.0189
     13 C         144.1773  142.8120  164.9371 C.ar    1  UNL1       -0.0042
     14 C         144.3111  144.2690  164.6065 C.ar    1  UNL1       -0.0003
     15 C         143.7569  144.7996  163.3175 C.ar    1  UNL1        0.0001
     16 C         143.0690  143.8731  162.3592 C.ar    1  UNL1        0.0027
     17 C         142.9352  142.4161  162.6898 C.ar    1  UNL1        0.0303
     18 C         141.7922  137.1728  156.9606 C.ar    1  UNL1        0.0829
     19 C         140.6036  136.9629  156.0699 C.ar    1  UNL1        0.0198
     20 C         140.6721  135.9671  154.9502 C.ar    1  UNL1        0.0118
     21 C         141.9290  135.1812  154.7212 C.ar    1  UNL1        0.0685
     22 C         143.1175  135.3910  155.6118 C.ar    1  UNL1        0.0118
     23 C         143.0491  136.3869  156.7315 C.ar    1  UNL1        0.0198
     24 C         141.9974  134.1854  153.6014 C.1     1  UNL1        0.1004
     25 N         142.0658  133.1897  152.4818 N.1     1  UNL1       -0.1908
     26 C         139.9465  142.1599  162.7351 C.3     1  UNL1        0.1119
     27 C         139.8067  141.6872  164.1517 C.3     1  UNL1        0.0388
     28 C         140.2912  142.5477  165.2808 C.3     1  UNL1        0.0048
     29 C         140.1514  142.0750  166.6974 C.3     1  UNL1        0.0174
     30 C         139.5273  140.7416  166.9851 C.3     1  UNL1        0.0720
     31 N         139.0428  139.8810  165.8560 N.3     1  UNL1       -0.2739
     32 C         139.1826  140.3539  164.4393 C.3     1  UNL1        0.0739
     33 C         138.4187  138.5478  166.1437 C.3     1  UNL1        0.0576
     34 C         138.7257  137.3709  165.2659 C.3     1  UNL1        0.0173
     35 C         137.4876  138.3914  167.3093 C.3     1  UNL1        0.0173
@<TRIPOS>BOND
     1    11    12    1
     2    12    13   ar
     3    13    14   ar
     4    14    15   ar
     5    15    16   ar
     6    16    17   ar
     7    17     1    1
     8     1     2   ar
     9     2     3   ar
    10     3     4   ar
    11     4     5   ar
    12     5    18    1
    13    18    19   ar
    14    19    20   ar
    15    20    21   ar
    16    21    24    1
    17    24    25    3
    18    21    22   ar
    19    22    23   ar
    20     5     6   ar
    21     6     7   ar
    22     7     8   ar
    23     8     9    2
    24     8    10   ar
    25    10    26    1
    26    26    27    1
    27    27    28    1
    28    28    29    1
    29    29    30    1
    30    30    31    1
    31    31    33    1
    32    33    34    1
    33    33    35    1
    34    31    32    1
    35    17    12   ar
    36    10     1   ar
    37    32    27    1
    38     7     3   ar
    39    23    18   ar
@<TRIPOS>MOLECULE
*****
 35 39 0 0 0
SMALL
GASTEIGER

@<TRIPOS>ATOM
      1 C         140.9814  141.6274  162.2242 C.ar    1  UNL1        0.1458
      2 N         140.2790  141.0275  161.0422 N.ar    1  UNL1       -0.2249
      3 C         140.9833  140.0192  160.1836 C.ar    1  UNL1        0.1260
      4 C         140.5497  139.2624  158.9633 C.ar    1  UNL1        0.1212
      5 N         141.6884  138.3863  158.5323 N.ar    1  UNL1       -0.2265
      6 N         142.8258  138.6016  159.4862 N.ar    1  UNL1       -0.1586
      7 C         142.3900  139.6109  160.5068 C.ar    1  UNL1        0.1762
      8 C         143.0924  140.2107  161.6887 C.ar    1  UNL1        0.2829
      9 O         144.4991  139.8024  162.0119 O.2     1  UNL1       -0.2652
     10 N         142.3880  141.2190  162.5473 N.ar    1  UNL1       -0.2793
     11 C         139.3624  140.7204  164.5813 C.3     1  UNL1        0.0311
     12 C         139.4675  142.1822  164.2614 C.ar    1  UNL1       -0.0189
     13 C         138.7632  143.1905  165.1201 C.ar    1  UNL1       -0.0042
     14 C         138.8684  144.6522  164.8002 C.ar    1  UNL1       -0.0003
     15 C         139.6779  145.1056  163.6216 C.ar    1  UNL1        0.0001
     16 C         140.3822  144.0974  162.7630 C.ar    1  UNL1        0.0027
     17 C         140.2770  142.6357  163.0829 C.ar    1  UNL1        0.0303
     18 C         141.6895  137.4578  157.3542 C.ar    1  UNL1        0.0829
     19 C         140.4638  137.3296  156.4991 C.ar    1  UNL1        0.0198
     20 C         140.4651  136.4011  155.3209 C.ar    1  UNL1        0.0118
     21 C         141.6920  135.6009  154.9979 C.ar    1  UNL1        0.0685
     22 C         142.9177  135.7291  155.8530 C.ar    1  UNL1        0.0118
     23 C         142.9164  136.6576  157.0311 C.ar    1  UNL1        0.0198
     24 C         141.6931  134.6724  153.8198 C.1     1  UNL1        0.1004
     25 N         141.6942  133.7440  152.6418 N.1     1  UNL1       -0.1908
     26 C         143.0905  141.8189  163.7292 C.3     1  UNL1        0.1119
     27 C         142.9349  141.2011  165.0871 C.3     1  UNL1        0.0388
     28 C         143.0683  139.7165  165.2555 C.3     1  UNL1        0.0048
     29 C         142.9127  139.0987  166.6134 C.3     1  UNL1        0.0174
     30 C         142.6237  139.9655  167.8031 C.3     1  UNL1        0.0720
     31 N         142.4903  141.4500  167.6348 N.3     1  UNL1       -0.2739
     32 C         142.6459  142.0678  166.2768 C.3     1  UNL1        0.0739
     33 C         142.2013  142.3167  168.8245 C.3     1  UNL1        0.0576
     34 C         143.2597  142.5420  169.8631 C.3     1  UNL1        0.0173
     35 C         140.8537  142.9582  168.9754 C.3     1  UNL1        0.0173
@<TRIPOS>BOND
     1    11    12    1
     2    12    13   ar
     3    13    14   ar
     4    14    15   ar
     5    15    16   ar
     6    16    17   ar
     7    17     1    1
     8     1     2   ar
     9     2     3   ar
    10     3     4   ar
    11     4     5   ar
    12     5    18    1
    13    18    19   ar
    14    19    20   ar
    15    20    21   ar
    16    21    24    1
    17    24    25    3
    18    21    22   ar
    19    22    23   ar
    20     5     6   ar
    21     6     7   ar
    22     7     8   ar
    23     8     9    2
    24     8    10   ar
    25    10    26    1
    26    26    27    1
    27    27    28    1
    28    28    29    1
    29    29    30    1
    30    30    31    1
    31    31    33    1
    32    33    34    1
    33    33    35    1
    34    31    32    1
    35    17    12   ar
    36    10     1   ar
    37    32    27    1
    38     7     3   ar
    39    23    18   ar
@<TRIPOS>MOLECULE
*****
 35 39 0 0 0
SMALL
GASTEIGER

@<TRIPOS>ATOM
      1 C         142.6390  141.5908  161.7429 C.ar    1  UNL1        0.1458
      2 N         142.3018  141.4546  160.2876 N.ar    1  UNL1       -0.2249
      3 C         142.4123  140.1190  159.6140 C.ar    1  UNL1        0.1260
      4 C         142.1494  139.6815  158.2035 C.ar    1  UNL1        0.1212
      5 N         142.4346  138.2116  158.1135 N.ar    1  UNL1       -0.2265
      6 N         142.8737  137.7407  159.4683 N.ar    1  UNL1       -0.1586
      7 C         142.8599  138.9195  160.3957 C.ar    1  UNL1        0.1762
      8 C         143.1971  139.0557  161.8509 C.ar    1  UNL1        0.2829
      9 O         143.6447  137.8563  162.6326 O.2     1  UNL1       -0.2652
     10 N         143.0866  140.3914  162.5245 N.ar    1  UNL1       -0.2793
     11 C         139.9842  142.5379  162.7700 C.3     1  UNL1        0.0311
     12 C         141.2012  143.4001  162.9301 C.ar    1  UNL1       -0.0189
     13 C         141.0908  144.7358  163.6037 C.ar    1  UNL1       -0.0042
     14 C         142.3078  145.5979  163.7638 C.ar    1  UNL1       -0.0003
     15 C         143.6352  145.1244  163.2503 C.ar    1  UNL1        0.0001
     16 C         143.7456  143.7887  162.5767 C.ar    1  UNL1        0.0027
     17 C         142.5286  142.9266  162.4166 C.ar    1  UNL1        0.0303
     18 C         142.3037  137.3618  156.8844 C.ar    1  UNL1        0.0829
     19 C         143.5310  136.9198  156.1439 C.ar    1  UNL1        0.0198
     20 C         143.4000  136.0699  154.9148 C.ar    1  UNL1        0.0118
     21 C         142.0418  135.6621  154.4261 C.ar    1  UNL1        0.0685
     22 C         140.8144  136.1041  155.1666 C.ar    1  UNL1        0.0118
     23 C         140.9454  136.9539  156.3957 C.ar    1  UNL1        0.0198
     24 C         141.9109  134.8123  153.1970 C.1     1  UNL1        0.1004
     25 N         141.7800  133.9625  151.9680 N.1     1  UNL1       -0.1908
     26 C         143.4239  140.5276  163.9798 C.3     1  UNL1        0.1119
     27 C         142.3271  140.5911  165.0011 C.3     1  UNL1        0.0388
     28 C         142.3722  141.6253  166.0867 C.3     1  UNL1        0.0048
     29 C         141.2755  141.6888  167.1080 C.3     1  UNL1        0.0174
     30 C         140.1336  140.7181  167.0437 C.3     1  UNL1        0.0720
     31 N         140.0885  139.6840  165.9581 N.3     1  UNL1       -0.2739
     32 C         141.1853  139.6205  164.9368 C.3     1  UNL1        0.0739
     33 C         138.9466  138.7134  165.8938 C.3     1  UNL1        0.0576
     34 C         137.8711  138.7505  166.9386 C.3     1  UNL1        0.0173
     35 C         138.8804  137.7057  164.7846 C.3     1  UNL1        0.0173
@<TRIPOS>BOND
     1    11    12    1
     2    12    13   ar
     3    13    14   ar
     4    14    15   ar
     5    15    16   ar
     6    16    17   ar
     7    17     1    1
     8     1     2   ar
     9     2     3   ar
    10     3     4   ar
    11     4     5   ar
    12     5    18    1
    13    18    19   ar
    14    19    20   ar
    15    20    21   ar
    16    21    24    1
    17    24    25    3
    18    21    22   ar
    19    22    23   ar
    20     5     6   ar
    21     6     7   ar
    22     7     8   ar
    23     8     9    2
    24     8    10   ar
    25    10    26    1
    26    26    27    1
    27    27    28    1
    28    28    29    1
    29    29    30    1
    30    30    31    1
    31    31    33    1
    32    33    34    1
    33    33    35    1
    34    31    32    1
    35    17    12   ar
    36    10     1   ar
    37    32    27    1
    38     7     3   ar
    39    23    18   ar
@<TRIPOS>MOLECULE
*****
 35 39 0 0 0
SMALL
GASTEIGER

@<TRIPOS>ATOM
      1 C         140.2203  140.4926  163.2046 C.ar    1  UNL1        0.1458
      2 N         139.4382  141.1721  162.1198 N.ar    1  UNL1       -0.2249
      3 C         140.1502  141.9793  161.0751 C.ar    1  UNL1        0.1260
      4 C         139.6501  142.7562  159.8934 C.ar    1  UNL1        0.1212
      5 N         140.8350  143.3639  159.2031 N.ar    1  UNL1       -0.2265
      6 N         142.0675  142.9627  159.9581 N.ar    1  UNL1       -0.1586
      7 C         141.6443  142.1069  161.1151 C.ar    1  UNL1        0.1762
      8 C         142.4263  141.4274  162.1998 C.ar    1  UNL1        0.2829
      9 O         143.9203  141.5550  162.2398 O.2     1  UNL1       -0.2652
     10 N         141.7143  140.6202  163.2445 N.ar    1  UNL1       -0.2793
     11 C         140.0753  137.5067  162.9525 C.3     1  UNL1        0.0311
     12 C         139.4358  138.1924  164.1233 C.ar    1  UNL1       -0.0189
     13 C         138.7237  137.3853  165.1681 C.ar    1  UNL1       -0.0042
     14 C         138.0843  138.0710  166.3389 C.ar    1  UNL1       -0.0003
     15 C         138.1568  139.5640  166.4649 C.ar    1  UNL1        0.0001
     16 C         138.8688  140.3711  165.4202 C.ar    1  UNL1        0.0027
     17 C         139.5083  139.6853  164.2494 C.ar    1  UNL1        0.0303
     18 C         140.7946  144.2223  157.9737 C.ar    1  UNL1        0.0829
     19 C         141.2836  143.6795  156.6636 C.ar    1  UNL1        0.0198
     20 C         141.2432  144.5380  155.4342 C.ar    1  UNL1        0.0118
     21 C         140.7138  145.9391  155.5147 C.ar    1  UNL1        0.0685
     22 C         140.2247  146.4819  156.8248 C.ar    1  UNL1        0.0118
     23 C         140.2652  145.6234  158.0542 C.ar    1  UNL1        0.0198
     24 C         140.6734  146.7975  154.2853 C.1     1  UNL1        0.1004
     25 N         140.6330  147.6558  153.0559 N.1     1  UNL1       -0.1908
     26 C         142.4964  139.9407  164.3293 C.3     1  UNL1        0.1119
     27 C         142.6214  140.5832  165.6788 C.3     1  UNL1        0.0388
     28 C         143.2618  141.9334  165.8102 C.3     1  UNL1        0.0048
     29 C         143.3869  142.5760  167.1597 C.3     1  UNL1        0.0174
     30 C         142.8716  141.8685  168.3780 C.3     1  UNL1        0.0720
     31 N         142.2313  140.5184  168.2467 N.3     1  UNL1       -0.2739
     32 C         142.1062  139.8758  166.8970 C.3     1  UNL1        0.0739
     33 C         141.7161  139.8110  169.4649 C.3     1  UNL1        0.0576
     34 C         140.3237  140.0782  169.9546 C.3     1  UNL1        0.0173
     35 C         142.5933  138.8364  170.1934 C.3     1  UNL1        0.0173
@<TRIPOS>BOND
     1    11    12    1
     2    12    13   ar
     3    13    14   ar
     4    14    15   ar
     5    15    16   ar
     6    16    17   ar
     7    17     1    1
     8     1     2   ar
     9     2     3   ar
    10     3     4   ar
    11     4     5   ar
    12     5    18    1
    13    18    19   ar
    14    19    20   ar
    15    20    21   ar
    16    21    24    1
    17    24    25    3
    18    21    22   ar
    19    22    23   ar
    20     5     6   ar
    21     6     7   ar
    22     7     8   ar
    23     8     9    2
    24     8    10   ar
    25    10    26    1
    26    26    27    1
    27    27    28    1
    28    28    29    1
    29    29    30    1
    30    30    31    1
    31    31    33    1
    32    33    34    1
    33    33    35    1
    34    31    32    1
    35    17    12   ar
    36    10     1   ar
    37    32    27    1
    38     7     3   ar
    39    23    18   ar
@<TRIPOS>MOLECULE
*****
 35 39 0 0 0
SMALL
GASTEIGER

@<TRIPOS>ATOM
      1 C         141.0183  138.8543  163.5271 C.ar    1  UNL1        0.1458
      2 N         140.6863  138.9851  162.0701 N.ar    1  UNL1       -0.2249
      3 C         141.7865  139.1198  161.0595 C.ar    1  UNL1        0.1260
      4 C         141.7658  139.2643  159.5666 C.ar    1  UNL1        0.1212
      5 N         143.1851  139.3577  159.0903 N.ar    1  UNL1       -0.2265
      6 N         144.0829  139.2708  160.2888 N.ar    1  UNL1       -0.1586
      7 C         143.2186  139.1238  161.5058 C.ar    1  UNL1        0.1762
      8 C         143.5504  138.9931  162.9628 C.ar    1  UNL1        0.2829
      9 O         144.9825  138.9971  163.4091 O.2     1  UNL1       -0.2652
     10 N         142.4502  138.8583  163.9734 N.ar    1  UNL1       -0.2793
     11 C         139.7024  141.3063  164.6479 C.3     1  UNL1        0.0311
     12 C         139.2601  139.9456  165.0982 C.ar    1  UNL1       -0.0189
     13 C         138.1599  139.8108  166.1089 C.ar    1  UNL1       -0.0042
     14 C         137.7177  138.4500  166.5592 C.ar    1  UNL1       -0.0003
     15 C         138.3756  137.2240  165.9988 C.ar    1  UNL1        0.0001
     16 C         139.4758  137.3588  164.9882 C.ar    1  UNL1        0.0027
     17 C         139.9180  138.7196  164.5379 C.ar    1  UNL1        0.0303
     18 C         143.6287  139.5109  157.6656 C.ar    1  UNL1        0.0829
     19 C         144.5742  140.6128  157.2889 C.ar    1  UNL1        0.0198
     20 C         145.0177  140.7660  155.8641 C.ar    1  UNL1        0.0118
     21 C         144.5158  139.8174  154.8162 C.ar    1  UNL1        0.0685
     22 C         143.5703  138.7155  155.1929 C.ar    1  UNL1        0.0118
     23 C         143.1268  138.5623  156.6176 C.ar    1  UNL1        0.0198
     24 C         144.9594  139.9707  153.3915 C.1     1  UNL1        0.1004
     25 N         145.4030  140.1240  151.9669 N.1     1  UNL1       -0.1908
     26 C         142.7822  138.7276  165.4304 C.3     1  UNL1        0.1119
     27 C         142.6217  139.9057  166.3449 C.3     1  UNL1        0.0388
     28 C         143.2770  141.2121  166.0072 C.3     1  UNL1        0.0048
     29 C         143.1165  142.3901  166.9216 C.3     1  UNL1        0.0174
     30 C         142.3006  142.2619  168.1739 C.3     1  UNL1        0.0720
     31 N         141.6453  140.9556  168.5116 N.3     1  UNL1       -0.2739
     32 C         141.8059  139.7775  167.5971 C.3     1  UNL1        0.0739
     33 C         140.8295  140.8274  169.7638 C.3     1  UNL1        0.0576
     34 C         141.4608  141.0847  171.0998 C.3     1  UNL1        0.0173
     35 C         139.3823  140.4418  169.6798 C.3     1  UNL1        0.0173
@<TRIPOS>BOND
     1    11    12    1
     2    12    13   ar
     3    13    14   ar
     4    14    15   ar
     5    15    16   ar
     6    16    17   ar
     7    17     1    1
     8     1     2   ar
     9     2     3   ar
    10     3     4   ar
    11     4     5   ar
    12     5    18    1
    13    18    19   ar
    14    19    20   ar
    15    20    21   ar
    16    21    24    1
    17    24    25    3
    18    21    22   ar
    19    22    23   ar
    20     5     6   ar
    21     6     7   ar
    22     7     8   ar
    23     8     9    2
    24     8    10   ar
    25    10    26    1
    26    26    27    1
    27    27    28    1
    28    28    29    1
    29    29    30    1
    30    30    31    1
    31    31    33    1
    32    33    34    1
    33    33    35    1
    34    31    32    1
    35    17    12   ar
    36    10     1   ar
    37    32    27    1
    38     7     3   ar
    39    23    18   ar
@<TRIPOS>MOLECULE
*****
 35 39 0 0 0
SMALL
GASTEIGER

@<TRIPOS>ATOM
      1 C         142.0658  141.6875  162.3183 C.ar    1  UNL1        0.1458
      2 N         142.8013  140.9945  161.2097 N.ar    1  UNL1       -0.2249
      3 C         142.0682  140.0619  160.2916 C.ar    1  UNL1        0.1260
      4 C         142.5234  139.2434  159.1199 C.ar    1  UNL1        0.1212
      5 N         141.3362  138.4979  158.5862 N.ar    1  UNL1       -0.2265
      6 N         140.1474  138.8556  159.4281 N.ar    1  UNL1       -0.1586
      7 C         140.5998  139.8223  160.4821 C.ar    1  UNL1        0.1762
      8 C         139.8644  140.5152  161.5907 C.ar    1  UNL1        0.2829
      9 O         138.3960  140.2756  161.7812 O.2     1  UNL1       -0.2652
     10 N         140.5974  141.4478  162.5088 N.ar    1  UNL1       -0.2793
     11 C         143.5038  140.6064  164.7190 C.3     1  UNL1        0.0311
     12 C         143.5179  142.0796  164.4368 C.ar    1  UNL1       -0.0189
     13 C         144.2509  143.0122  165.3549 C.ar    1  UNL1       -0.0042
     14 C         144.2649  144.4853  165.0727 C.ar    1  UNL1       -0.0003
     15 C         143.5458  145.0259  163.8723 C.ar    1  UNL1        0.0001
     16 C         142.8128  144.0933  162.9542 C.ar    1  UNL1        0.0027
     17 C         142.7988  142.6201  163.2365 C.ar    1  UNL1        0.0303
     18 C         141.3375  137.5594  157.4161 C.ar    1  UNL1        0.0829
     19 C         140.1435  137.4873  156.5111 C.ar    1  UNL1        0.0198
     20 C         140.1450  136.5487  155.3409 C.ar    1  UNL1        0.0118
     21 C         141.3403  135.6823  155.0758 C.ar    1  UNL1        0.0685
     22 C         142.5344  135.7544  155.9809 C.ar    1  UNL1        0.0118
     23 C         142.5329  136.6929  157.1510 C.ar    1  UNL1        0.0198
     24 C         141.3417  134.7438  153.9057 C.1     1  UNL1        0.1004
     25 N         141.3430  133.8053  152.7357 N.1     1  UNL1       -0.1908
     26 C         139.8619  142.1408  163.6174 C.3     1  UNL1        0.1119
     27 C         139.7841  141.5089  164.9755 C.3     1  UNL1        0.0388
     28 C         139.0425  140.2183  165.1610 C.3     1  UNL1        0.0048
     29 C         138.9646  139.5865  166.5191 C.3     1  UNL1        0.0174
     30 C         139.6285  140.2452  167.6919 C.3     1  UNL1        0.0720
     31 N         140.3701  141.5358  167.5066 N.3     1  UNL1       -0.2739
     32 C         140.4479  142.1676  166.1483 C.3     1  UNL1        0.0739
     33 C         141.0339  142.1945  168.6794 C.3     1  UNL1        0.0576
     34 C         142.5223  142.3791  168.6925 C.3     1  UNL1        0.0173
     35 C         140.2090  142.6685  169.8391 C.3     1  UNL1        0.0173
@<TRIPOS>BOND
     1    11    12    1
     2    12    13   ar
     3    13    14   ar
     4    14    15   ar
     5    15    16   ar
     6    16    17   ar
     7    17     1    1
     8     1     2   ar
     9     2     3   ar
    10     3     4   ar
    11     4     5   ar
    12     5    18    1
    13    18    19   ar
    14    19    20   ar
    15    20    21   ar
    16    21    24    1
    17    24    25    3
    18    21    22   ar
    19    22    23   ar
    20     5     6   ar
    21     6     7   ar
    22     7     8   ar
    23     8     9    2
    24     8    10   ar
    25    10    26    1
    26    26    27    1
    27    27    28    1
    28    28    29    1
    29    29    30    1
    30    30    31    1
    31    31    33    1
    32    33    34    1
    33    33    35    1
    34    31    32    1
    35    17    12   ar
    36    10     1   ar
    37    32    27    1
    38     7     3   ar
    39    23    18   ar
