@<TRIPOS>MOLECULE
*****
 37 40 0 0 0
SMALL
GASTEIGER

@<TRIPOS>ATOM
      1 C         142.0965  138.7452  158.4584 C.3     1  UNL1        0.0758
      2 C         142.0186  140.1577  157.9593 C.3     1  UNL1        0.0370
      3 C         142.7492  141.2500  158.6825 C.3     1  UNL1        0.0741
      4 N         143.5578  140.9300  159.9047 N.3     1  UNL1       -0.2688
      5 C         143.6357  139.5176  160.4038 C.3     1  UNL1        0.0741
      6 C         142.9050  138.4252  159.6806 C.3     1  UNL1        0.0370
      7 O         143.5818  136.9307  156.5873 O.2     1  UNL1       -0.2528
      8 C         142.1085  136.7457  156.7997 C.2     1  UNL1        0.3007
      9 N         141.3779  135.6533  156.0766 N.am    1  UNL1       -0.2889
     10 N         141.3658  137.6529  157.7353 N.am    1  UNL1       -0.2905
     11 H         140.4109  135.5318  156.2160 H       1  UNL1        0.1510
     12 H         140.3989  137.5315  157.8747 H       1  UNL1        0.1509
     13 C         142.1206  134.7460  155.1410 C.3     1  UNL1        0.0933
     14 C         142.3365  133.3070  155.5054 C.3     1  UNL1        0.0465
     15 C         141.4330  132.2481  154.9467 C.3     1  UNL1        0.0041
     16 C         141.6490  130.8092  155.3111 C.3     1  UNL1        0.0002
     17 C         142.7685  130.4292  156.2343 C.3     1  UNL1        0.0025
     18 C         143.6721  131.4881  156.7930 C.3     1  UNL1        0.0293
     19 C         143.4561  132.9270  156.4286 C.3     1  UNL1        0.1121
     20 O         144.3596  133.9860  156.9874 O.3     1  UNL1       -0.3844
     21 H         144.0843  134.8546  156.6546 H       1  UNL1        0.2103
     22 C         144.2884  142.0223  160.6278 C.3     1  UNL1        0.1007
     23 C         144.3133  142.0428  162.1275 C.ar    1  UNL1        0.0129
     24 C         145.5306  141.8944  162.9912 C.ar    1  UNL1        0.0176
     25 C         145.0949  141.9752  164.4243 C.ar    1  UNL1        0.0799
     26 N         143.6081  142.1734  164.4462 N.ar    1  UNL1       -0.3038
     27 C         143.1251  142.2152  163.0267 C.ar    1  UNL1        0.0772
     28 C         142.7544  142.3065  165.6723 C.ar    1  UNL1        0.0640
     29 C         143.3792  142.2258  167.0336 C.ar    1  UNL1        0.0175
     30 C         142.5255  142.3589  168.2597 C.ar    1  UNL1        0.0053
     31 C         141.0470  142.5728  168.1246 C.ar    1  UNL1        0.0715
     32 C         140.4222  142.6536  166.7633 C.ar    1  UNL1        0.0053
     33 C         141.2759  142.5205  165.5372 C.ar    1  UNL1        0.0175
     34 C         140.1932  142.7059  169.3507 C.3     1  UNL1        0.4186
     35 F         139.3395  142.8390  170.5768 F       1  UNL1       -0.1659
     36 F         139.6309  141.3367  169.1078 F       1  UNL1       -0.1659
     37 F         140.7556  144.0751  169.5936 F       1  UNL1       -0.1659
@<TRIPOS>BOND
     1     7     8    2
     2     8     9   am
     3     9    13    1
     4    14    13    1
     5    14    15    1
     6    15    16    1
     7    16    17    1
     8    17    18    1
     9    18    19    1
    10    19    20    1
    11     8    10   am
    12    10     1    1
    13     1     2    1
    14     2     3    1
    15     3     4    1
    16     4    22    1
    17    22    23    1
    18    23    24   ar
    19    24    25   ar
    20    25    26   ar
    21    26    28    1
    22    28    29   ar
    23    29    30   ar
    24    30    31   ar
    25    31    34    1
    26    34    35    1
    27    34    36    1
    28    34    37    1
    29    31    32   ar
    30    32    33   ar
    31    26    27   ar
    32     4     5    1
    33     5     6    1
    34    19    14    1
    35     6     1    1
    36    27    23   ar
    37    33    28   ar
    38     9    11    1
    39    20    21    1
    40    10    12    1
@<TRIPOS>MOLECULE
*****
 37 40 0 0 0
SMALL
GASTEIGER

@<TRIPOS>ATOM
      1 C         142.5713  138.9201  158.5109 C.3     1  UNL1        0.0758
      2 C         142.7959  138.3663  159.8868 C.3     1  UNL1        0.0370
      3 C         141.6304  138.1390  160.8032 C.3     1  UNL1        0.0741
      4 N         140.2403  138.4656  160.3439 N.3     1  UNL1       -0.2688
      5 C         140.0157  139.0194  158.9681 C.3     1  UNL1        0.0741
      6 C         141.1812  139.2467  158.0516 C.3     1  UNL1        0.0370
      7 O         143.9926  141.5620  158.5186 O.2     1  UNL1       -0.2528
      8 C         144.4475  140.4683  157.5983 C.2     1  UNL1        0.3007
      9 N         145.6130  140.6956  156.6819 N.am    1  UNL1       -0.2889
     10 N         143.7368  139.1474  157.5945 N.am    1  UNL1       -0.2905
     11 H         145.9116  139.9778  156.0778 H       1  UNL1        0.1510
     12 H         144.0354  138.4296  156.9905 H       1  UNL1        0.1509
     13 C         146.3237  142.0166  156.6857 C.3     1  UNL1        0.0933
     14 C         147.2809  142.3565  155.5819 C.3     1  UNL1        0.0465
     15 C         148.6387  141.7203  155.5443 C.3     1  UNL1        0.0041
     16 C         149.5958  142.0603  154.4405 C.3     1  UNL1        0.0002
     17 C         149.1951  143.0365  153.3745 C.3     1  UNL1        0.0025
     18 C         147.8373  143.6727  153.4122 C.3     1  UNL1        0.0293
     19 C         146.8802  143.3327  154.5159 C.3     1  UNL1        0.1121
     20 O         145.5222  143.9690  154.5536 O.3     1  UNL1       -0.3844
     21 H         145.0337  143.6428  155.3255 H       1  UNL1        0.2103
     22 C         139.0748  138.2383  161.2603 C.3     1  UNL1        0.1007
     23 C         138.8221  139.1802  162.4001 C.ar    1  UNL1        0.0129
     24 C         137.8404  140.3143  162.4056 C.ar    1  UNL1        0.0176
     25 C         137.9184  140.9883  163.7434 C.ar    1  UNL1        0.0799
     26 N         138.9482  140.2707  164.5647 N.ar    1  UNL1       -0.3038
     27 C         139.5067  139.1532  163.7345 C.ar    1  UNL1        0.0772
     28 C         139.3491  140.6108  165.9696 C.ar    1  UNL1        0.0640
     29 C         140.0663  141.8971  166.2542 C.ar    1  UNL1        0.0175
     30 C         140.4672  142.2372  167.6591 C.ar    1  UNL1        0.0053
     31 C         140.1509  141.2911  168.7792 C.ar    1  UNL1        0.0715
     32 C         139.4336  140.0048  168.4946 C.ar    1  UNL1        0.0053
     33 C         139.0328  139.6646  167.0897 C.ar    1  UNL1        0.0175
     34 C         140.5518  141.6312  170.1841 C.3     1  UNL1        0.4186
     35 F         140.9527  141.9713  171.5889 F       1  UNL1       -0.1659
     36 F         141.6804  140.6468  170.1003 F       1  UNL1       -0.1659
     37 F         139.4231  142.6156  170.2678 F       1  UNL1       -0.1659
@<TRIPOS>BOND
     1     7     8    2
     2     8     9   am
     3     9    13    1
     4    14    13    1
     5    14    15    1
     6    15    16    1
     7    16    17    1
     8    17    18    1
     9    18    19    1
    10    19    20    1
    11     8    10   am
    12    10     1    1
    13     1     2    1
    14     2     3    1
    15     3     4    1
    16     4    22    1
    17    22    23    1
    18    23    24   ar
    19    24    25   ar
    20    25    26   ar
    21    26    28    1
    22    28    29   ar
    23    29    30   ar
    24    30    31   ar
    25    31    34    1
    26    34    35    1
    27    34    36    1
    28    34    37    1
    29    31    32   ar
    30    32    33   ar
    31    26    27   ar
    32     4     5    1
    33     5     6    1
    34    19    14    1
    35     6     1    1
    36    27    23   ar
    37    33    28   ar
    38     9    11    1
    39    20    21    1
    40    10    12    1
@<TRIPOS>MOLECULE
*****
 37 40 0 0 0
SMALL
GASTEIGER

@<TRIPOS>ATOM
      1 C         140.4644  143.6148  159.2059 C.3     1  UNL1        0.0758
      2 C         141.4928  142.6125  158.7725 C.3     1  UNL1        0.0370
      3 C         141.4180  141.1989  159.2685 C.3     1  UNL1        0.0741
      4 N         140.3147  140.7875  160.1977 N.3     1  UNL1       -0.2688
      5 C         139.2863  141.7897  160.6311 C.3     1  UNL1        0.0741
      6 C         139.3611  143.2035  160.1351 C.3     1  UNL1        0.0370
      7 O         139.2423  144.3446  156.5651 O.2     1  UNL1       -0.2528
      8 C         139.9282  145.3933  157.3895 C.2     1  UNL1        0.3007
      9 N         140.0031  146.8070  156.8935 N.am    1  UNL1       -0.2889
     10 N         140.5392  145.0285  158.7099 N.am    1  UNL1       -0.2905
     11 H         140.4532  147.4954  157.4346 H       1  UNL1        0.1510
     12 H         140.9894  145.7168  159.2510 H       1  UNL1        0.1509
     13 C         139.3920  147.1719  155.5731 C.3     1  UNL1        0.0933
     14 C         139.2551  148.6139  155.1830 C.3     1  UNL1        0.0465
     15 C         139.7644  149.0824  153.8522 C.3     1  UNL1        0.0041
     16 C         139.6275  150.5242  153.4621 C.3     1  UNL1        0.0002
     17 C         138.9811  151.4976  154.4027 C.3     1  UNL1        0.0025
     18 C         138.4717  151.0291  155.7335 C.3     1  UNL1        0.0293
     19 C         138.6087  149.5872  156.1236 C.3     1  UNL1        0.1121
     20 O         138.0993  149.1186  157.4544 O.3     1  UNL1       -0.3844
     21 H         138.2652  148.1675  157.5475 H       1  UNL1        0.2103
     22 C         140.2398  139.3739  160.6937 C.3     1  UNL1        0.1007
     23 C         139.9467  139.1007  162.1392 C.ar    1  UNL1        0.0129
     24 C         138.8519  138.2210  162.6660 C.ar    1  UNL1        0.0176
     25 C         138.9256  138.2359  164.1641 C.ar    1  UNL1        0.0799
     26 N         140.0660  139.1248  164.5633 N.ar    1  UNL1       -0.3038
     27 C         140.6971  139.6593  163.3118 C.ar    1  UNL1        0.0772
     28 C         140.4993  139.4263  165.9673 C.ar    1  UNL1        0.0640
     29 C         139.4921  139.8809  166.9817 C.ar    1  UNL1        0.0175
     30 C         139.9254  140.1824  168.3857 C.ar    1  UNL1        0.0053
     31 C         141.3658  140.0293  168.7754 C.ar    1  UNL1        0.0715
     32 C         142.3729  139.5747  167.7610 C.ar    1  UNL1        0.0053
     33 C         141.9397  139.2732  166.3570 C.ar    1  UNL1        0.0175
     34 C         141.7990  140.3307  170.1795 C.3     1  UNL1        0.4186
     35 F         142.2322  140.6322  171.5835 F       1  UNL1       -0.1659
     36 F         143.0400  140.9900  169.6550 F       1  UNL1       -0.1659
     37 F         140.5580  139.6714  170.7040 F       1  UNL1       -0.1659
@<TRIPOS>BOND
     1     7     8    2
     2     8     9   am
     3     9    13    1
     4    14    13    1
     5    14    15    1
     6    15    16    1
     7    16    17    1
     8    17    18    1
     9    18    19    1
    10    19    20    1
    11     8    10   am
    12    10     1    1
    13     1     2    1
    14     2     3    1
    15     3     4    1
    16     4    22    1
    17    22    23    1
    18    23    24   ar
    19    24    25   ar
    20    25    26   ar
    21    26    28    1
    22    28    29   ar
    23    29    30   ar
    24    30    31   ar
    25    31    34    1
    26    34    35    1
    27    34    36    1
    28    34    37    1
    29    31    32   ar
    30    32    33   ar
    31    26    27   ar
    32     4     5    1
    33     5     6    1
    34    19    14    1
    35     6     1    1
    36    27    23   ar
    37    33    28   ar
    38     9    11    1
    39    20    21    1
    40    10    12    1
@<TRIPOS>MOLECULE
*****
 37 40 0 0 0
SMALL
GASTEIGER

@<TRIPOS>ATOM
      1 C         140.7739  144.3290  159.1153 C.3     1  UNL1        0.0758
      2 C         142.1864  143.9245  158.8129 C.3     1  UNL1        0.0370
      3 C         142.6840  142.5713  159.2266 C.3     1  UNL1        0.0741
      4 N         141.7691  141.6225  159.9428 N.3     1  UNL1       -0.2688
      5 C         140.3567  142.0269  160.2452 C.3     1  UNL1        0.0741
      6 C         139.8591  143.3802  159.8315 C.3     1  UNL1        0.0370
      7 O         140.2463  144.9125  156.2204 O.2     1  UNL1       -0.2528
      8 C         140.0126  145.9740  157.2541 C.2     1  UNL1        0.3007
      9 N         139.5150  147.3272  156.8403 N.am    1  UNL1       -0.2889
     10 N         140.2764  145.6822  158.7016 N.am    1  UNL1       -0.2905
     11 H         139.3616  148.0239  157.5188 H       1  UNL1        0.1510
     12 H         140.1230  146.3789  159.3801 H       1  UNL1        0.1509
     13 C         139.2512  147.6190  155.3929 C.3     1  UNL1        0.0933
     14 C         139.1765  149.0391  154.9155 C.3     1  UNL1        0.0465
     15 C         139.7538  149.4136  153.5827 C.3     1  UNL1        0.0041
     16 C         139.6791  150.8336  153.1054 C.3     1  UNL1        0.0002
     17 C         139.0271  151.8791  153.9608 C.3     1  UNL1        0.0025
     18 C         138.4497  151.5046  155.2936 C.3     1  UNL1        0.0293
     19 C         138.5244  150.0846  155.7709 C.3     1  UNL1        0.1121
     20 O         137.9470  149.7099  157.1037 O.3     1  UNL1       -0.3844
     21 H         138.0784  148.7613  157.2579 H       1  UNL1        0.2103
     22 C         142.2667  140.2693  160.3565 C.3     1  UNL1        0.1007
     23 C         142.8943  140.0813  161.7059 C.ar    1  UNL1        0.0129
     24 C         144.2432  139.4829  161.9752 C.ar    1  UNL1        0.0176
     25 C         144.4658  139.4904  163.4586 C.ar    1  UNL1        0.0799
     26 N         143.2544  140.0934  164.1060 N.ar    1  UNL1       -0.3038
     27 C         142.2833  140.4586  163.0228 C.ar    1  UNL1        0.0772
     28 C         143.0502  140.2957  165.5782 C.ar    1  UNL1        0.0640
     29 C         142.9155  139.1097  166.4866 C.ar    1  UNL1        0.0175
     30 C         142.7112  139.3120  167.9588 C.ar    1  UNL1        0.0053
     31 C         142.6418  140.7003  168.5226 C.ar    1  UNL1        0.0715
     32 C         142.7765  141.8863  167.6142 C.ar    1  UNL1        0.0053
     33 C         142.9807  141.6840  166.1420 C.ar    1  UNL1        0.0175
     34 C         142.4375  140.9026  169.9948 C.3     1  UNL1        0.4186
     35 F         142.2333  141.1049  171.4669 F       1  UNL1       -0.1659
     36 F         143.8175  141.4796  170.1069 F       1  UNL1       -0.1659
     37 F         141.0575  140.3256  169.8826 F       1  UNL1       -0.1659
@<TRIPOS>BOND
     1     7     8    2
     2     8     9   am
     3     9    13    1
     4    14    13    1
     5    14    15    1
     6    15    16    1
     7    16    17    1
     8    17    18    1
     9    18    19    1
    10    19    20    1
    11     8    10   am
    12    10     1    1
    13     1     2    1
    14     2     3    1
    15     3     4    1
    16     4    22    1
    17    22    23    1
    18    23    24   ar
    19    24    25   ar
    20    25    26   ar
    21    26    28    1
    22    28    29   ar
    23    29    30   ar
    24    30    31   ar
    25    31    34    1
    26    34    35    1
    27    34    36    1
    28    34    37    1
    29    31    32   ar
    30    32    33   ar
    31    26    27   ar
    32     4     5    1
    33     5     6    1
    34    19    14    1
    35     6     1    1
    36    27    23   ar
    37    33    28   ar
    38     9    11    1
    39    20    21    1
    40    10    12    1
@<TRIPOS>MOLECULE
*****
 37 40 0 0 0
SMALL
GASTEIGER

@<TRIPOS>ATOM
      1 C         140.2570  145.1194  158.1440 C.3     1  UNL1        0.0758
      2 C         139.5513  143.9047  157.6180 C.3     1  UNL1        0.0370
      3 C         138.9283  142.9279  158.5708 C.3     1  UNL1        0.0741
      4 N         139.0110  143.1657  160.0495 N.3     1  UNL1       -0.2688
      5 C         139.7167  144.3804  160.5755 C.3     1  UNL1        0.0741
      6 C         140.3397  145.3572  159.6227 C.3     1  UNL1        0.0370
      7 O         138.6034  146.3527  155.9659 O.2     1  UNL1       -0.2528
      8 C         140.0531  146.7129  156.1022 C.2     1  UNL1        0.3007
      9 N         140.6761  147.6897  155.1493 N.am    1  UNL1       -0.2889
     10 N         140.8799  146.0962  157.1912 N.am    1  UNL1       -0.2905
     11 H         141.6276  147.9261  155.2388 H       1  UNL1        0.1510
     12 H         141.8314  146.3326  157.2807 H       1  UNL1        0.1509
     13 C         139.8493  148.3064  154.0603 C.3     1  UNL1        0.0933
     14 C         139.4395  149.7464  154.1537 C.3     1  UNL1        0.0465
     15 C         139.6778  150.6705  152.9965 C.3     1  UNL1        0.0041
     16 C         139.2681  152.1104  153.0899 C.3     1  UNL1        0.0002
     17 C         138.6201  152.6261  154.3405 C.3     1  UNL1        0.0025
     18 C         138.3818  151.7020  155.4977 C.3     1  UNL1        0.0293
     19 C         138.7916  150.2621  155.4043 C.3     1  UNL1        0.1121
     20 O         138.5533  149.3379  156.5616 O.3     1  UNL1       -0.3844
     21 H         138.8743  148.4503  156.3379 H       1  UNL1        0.2103
     22 C         138.3881  142.1890  161.0022 C.3     1  UNL1        0.1007
     23 C         138.5343  142.3872  162.4819 C.ar    1  UNL1        0.0129
     24 C         137.7437  143.3425  163.3259 C.ar    1  UNL1        0.0176
     25 C         138.2176  143.2107  164.7429 C.ar    1  UNL1        0.0799
     26 N         139.3011  142.1738  164.7748 N.ar    1  UNL1       -0.3038
     27 C         139.4969  141.6649  163.3774 C.ar    1  UNL1        0.0772
     28 C         140.0563  141.7248  165.9905 C.ar    1  UNL1        0.0640
     29 C         141.2006  142.5450  166.5080 C.ar    1  UNL1        0.0175
     30 C         141.9557  142.0960  167.7238 C.ar    1  UNL1        0.0053
     31 C         141.5666  140.8267  168.4220 C.ar    1  UNL1        0.0715
     32 C         140.4224  140.0064  167.9045 C.ar    1  UNL1        0.0053
     33 C         139.6672  140.4555  166.6888 C.ar    1  UNL1        0.0175
     34 C         142.3218  140.3777  169.6378 C.3     1  UNL1        0.4186
     35 F         143.0769  139.9286  170.8535 F       1  UNL1       -0.1659
     36 F         143.4483  141.3008  169.2790 F       1  UNL1       -0.1659
     37 F         141.1953  139.4545  169.9965 F       1  UNL1       -0.1659
@<TRIPOS>BOND
     1     7     8    2
     2     8     9   am
     3     9    13    1
     4    14    13    1
     5    14    15    1
     6    15    16    1
     7    16    17    1
     8    17    18    1
     9    18    19    1
    10    19    20    1
    11     8    10   am
    12    10     1    1
    13     1     2    1
    14     2     3    1
    15     3     4    1
    16     4    22    1
    17    22    23    1
    18    23    24   ar
    19    24    25   ar
    20    25    26   ar
    21    26    28    1
    22    28    29   ar
    23    29    30   ar
    24    30    31   ar
    25    31    34    1
    26    34    35    1
    27    34    36    1
    28    34    37    1
    29    31    32   ar
    30    32    33   ar
    31    26    27   ar
    32     4     5    1
    33     5     6    1
    34    19    14    1
    35     6     1    1
    36    27    23   ar
    37    33    28   ar
    38     9    11    1
    39    20    21    1
    40    10    12    1
@<TRIPOS>MOLECULE
*****
 37 40 0 0 0
SMALL
GASTEIGER

@<TRIPOS>ATOM
      1 C         142.5365  138.5454  159.4262 C.3     1  UNL1        0.0758
      2 C         143.1080  137.9775  160.6915 C.3     1  UNL1        0.0370
      3 C         142.2020  137.6401  161.8384 C.3     1  UNL1        0.0741
      4 N         140.7246  137.8706  161.7201 N.3     1  UNL1       -0.2688
      5 C         140.1531  138.4385  160.4548 C.3     1  UNL1        0.0741
      6 C         141.0590  138.7759  159.3079 C.3     1  UNL1        0.0370
      7 O         143.9137  141.2089  159.3360 O.2     1  UNL1       -0.2528
      8 C         144.1310  140.2145  158.2342 C.2     1  UNL1        0.3007
      9 N         145.0371  140.5520  157.0873 N.am    1  UNL1       -0.2889
     10 N         143.4424  138.8827  158.2793 N.am    1  UNL1       -0.2905
     11 H         145.1797  139.8993  156.3641 H       1  UNL1        0.1510
     12 H         143.5850  138.2301  157.5562 H       1  UNL1        0.1509
     13 C         145.7257  141.8837  157.0422 C.3     1  UNL1        0.0933
     14 C         146.5146  142.2795  155.8293 C.3     1  UNL1        0.0465
     15 C         147.9499  141.8635  155.6996 C.3     1  UNL1        0.0041
     16 C         148.7387  142.2592  154.4867 C.3     1  UNL1        0.0002
     17 C         148.0923  143.0709  153.4035 C.3     1  UNL1        0.0025
     18 C         146.6570  143.4869  153.5332 C.3     1  UNL1        0.0293
     19 C         145.8682  143.0912  154.7461 C.3     1  UNL1        0.1121
     20 O         144.4328  143.5072  154.8758 O.3     1  UNL1       -0.3844
     21 H         144.0733  143.1718  155.7120 H       1  UNL1        0.2103
     22 C         139.8186  137.5332  162.8669 C.3     1  UNL1        0.1007
     23 C         139.6208  138.5178  163.9813 C.ar    1  UNL1        0.0129
     24 C         138.3161  139.1322  164.3938 C.ar    1  UNL1        0.0176
     25 C         138.5820  140.0548  165.5461 C.ar    1  UNL1        0.0799
     26 N         140.0512  140.0107  165.8459 N.ar    1  UNL1       -0.3038
     27 C         140.6932  139.0607  164.8787 C.ar    1  UNL1        0.0772
     28 C         140.7547  140.7812  166.9235 C.ar    1  UNL1        0.0640
     29 C         140.1485  140.8807  168.2920 C.ar    1  UNL1        0.0175
     30 C         140.8521  141.6512  169.3696 C.ar    1  UNL1        0.0053
     31 C         142.1618  142.3221  169.0788 C.ar    1  UNL1        0.0715
     32 C         142.7679  142.2226  167.7104 C.ar    1  UNL1        0.0053
     33 C         142.0644  141.4521  166.6328 C.ar    1  UNL1        0.0175
     34 C         142.8653  143.0926  170.1565 C.3     1  UNL1        0.4186
     35 F         143.5688  143.8631  171.2341 F       1  UNL1       -0.1659
     36 F         141.6965  144.0281  170.2507 F       1  UNL1       -0.1659
     37 F         144.0340  142.1572  170.0623 F       1  UNL1       -0.1659
@<TRIPOS>BOND
     1     7     8    2
     2     8     9   am
     3     9    13    1
     4    14    13    1
     5    14    15    1
     6    15    16    1
     7    16    17    1
     8    17    18    1
     9    18    19    1
    10    19    20    1
    11     8    10   am
    12    10     1    1
    13     1     2    1
    14     2     3    1
    15     3     4    1
    16     4    22    1
    17    22    23    1
    18    23    24   ar
    19    24    25   ar
    20    25    26   ar
    21    26    28    1
    22    28    29   ar
    23    29    30   ar
    24    30    31   ar
    25    31    34    1
    26    34    35    1
    27    34    36    1
    28    34    37    1
    29    31    32   ar
    30    32    33   ar
    31    26    27   ar
    32     4     5    1
    33     5     6    1
    34    19    14    1
    35     6     1    1
    36    27    23   ar
    37    33    28   ar
    38     9    11    1
    39    20    21    1
    40    10    12    1
@<TRIPOS>MOLECULE
*****
 37 40 0 0 0
SMALL
GASTEIGER

@<TRIPOS>ATOM
      1 C         138.4992  141.7007  158.1599 C.3     1  UNL1        0.0758
      2 C         138.3299  141.5644  159.6441 C.3     1  UNL1        0.0370
      3 C         139.4127  140.9324  160.4676 C.3     1  UNL1        0.0741
      4 N         140.6648  140.4366  159.8069 N.3     1  UNL1       -0.2688
      5 C         140.8341  140.5729  158.3228 C.3     1  UNL1        0.0741
      6 C         139.7513  141.2050  157.4992 C.3     1  UNL1        0.0370
      7 O         136.6923  139.9864  156.4878 O.2     1  UNL1       -0.2528
      8 C         136.5130  141.4756  156.5004 C.2     1  UNL1        0.3007
      9 N         135.4302  142.1077  155.6769 N.am    1  UNL1       -0.2889
     10 N         137.4164  142.3328  157.3365 N.am    1  UNL1       -0.2905
     11 H         135.3124  143.0851  155.6852 H       1  UNL1        0.1510
     12 H         137.2987  143.3102  157.3448 H       1  UNL1        0.1509
     13 C         134.5267  141.2505  154.8408 C.3     1  UNL1        0.0933
     14 C         133.1940  140.8193  155.3774 C.3     1  UNL1        0.0465
     15 C         131.9949  141.7043  155.2071 C.3     1  UNL1        0.0041
     16 C         130.6623  141.2730  155.7437 C.3     1  UNL1        0.0002
     17 C         130.5286  139.9568  156.4506 C.3     1  UNL1        0.0025
     18 C         131.7277  139.0718  156.6209 C.3     1  UNL1        0.0293
     19 C         133.0603  139.5031  156.0843 C.3     1  UNL1        0.1121
     20 O         134.2595  138.6180  156.2546 O.3     1  UNL1       -0.3844
     21 H         135.0341  139.0424  155.8536 H       1  UNL1        0.2103
     22 C         141.7475  139.8046  160.6303 C.3     1  UNL1        0.1007
     23 C         141.4267  139.2324  161.9793 C.ar    1  UNL1        0.0129
     24 C         141.0187  137.8170  162.2624 C.ar    1  UNL1        0.0176
     25 C         140.7973  137.6851  163.7401 C.ar    1  UNL1        0.0799
     26 N         141.0685  139.0190  164.3703 N.ar    1  UNL1       -0.3038
     27 C         141.4574  139.9753  163.2821 C.ar    1  UNL1        0.0772
     28 C         140.9683  139.3402  165.8321 C.ar    1  UNL1        0.0640
     29 C         139.6273  139.5960  166.4536 C.ar    1  UNL1        0.0175
     30 C         139.5271  139.9171  167.9153 C.ar    1  UNL1        0.0053
     31 C         140.7679  139.9826  168.7556 C.ar    1  UNL1        0.0715
     32 C         142.1089  139.7268  168.1342 C.ar    1  UNL1        0.0053
     33 C         142.2091  139.4056  166.6724 C.ar    1  UNL1        0.0175
     34 C         140.6677  140.3038  170.2174 C.3     1  UNL1        0.4186
     35 F         140.5675  140.6249  171.6791 F       1  UNL1       -0.1659
     36 F         139.2028  140.5829  170.0556 F       1  UNL1       -0.1659
     37 F         142.1326  140.0247  170.3791 F       1  UNL1       -0.1659
@<TRIPOS>BOND
     1     7     8    2
     2     8     9   am
     3     9    13    1
     4    14    13    1
     5    14    15    1
     6    15    16    1
     7    16    17    1
     8    17    18    1
     9    18    19    1
    10    19    20    1
    11     8    10   am
    12    10     1    1
    13     1     2    1
    14     2     3    1
    15     3     4    1
    16     4    22    1
    17    22    23    1
    18    23    24   ar
    19    24    25   ar
    20    25    26   ar
    21    26    28    1
    22    28    29   ar
    23    29    30   ar
    24    30    31   ar
    25    31    34    1
    26    34    35    1
    27    34    36    1
    28    34    37    1
    29    31    32   ar
    30    32    33   ar
    31    26    27   ar
    32     4     5    1
    33     5     6    1
    34    19    14    1
    35     6     1    1
    36    27    23   ar
    37    33    28   ar
    38     9    11    1
    39    20    21    1
    40    10    12    1
@<TRIPOS>MOLECULE
*****
 37 40 0 0 0
SMALL
GASTEIGER

@<TRIPOS>ATOM
      1 C         140.3177  145.0999  157.8525 C.3     1  UNL1        0.0758
      2 C         139.9504  143.6697  157.5886 C.3     1  UNL1        0.0370
      3 C         139.1143  143.3183  156.3939 C.3     1  UNL1        0.0741
      4 N         138.6455  144.3970  155.4630 N.3     1  UNL1       -0.2688
      5 C         139.0128  145.8272  155.7268 C.3     1  UNL1        0.0741
      6 C         139.8489  146.1787  156.9216 C.3     1  UNL1        0.0370
      7 O         139.3455  144.4351  160.6115 O.2     1  UNL1       -0.2528
      8 C         140.6677  145.1189  160.4267 C.2     1  UNL1        0.3007
      9 N         141.5038  145.4703  161.6216 N.am    1  UNL1       -0.2889
     10 N         141.1538  145.4513  159.0472 N.am    1  UNL1       -0.2905
     11 H         142.3716  145.9192  161.5003 H       1  UNL1        0.1510
     12 H         142.0216  145.9002  158.9259 H       1  UNL1        0.1509
     13 C         141.0177  145.1379  163.0011 C.3     1  UNL1        0.0933
     14 C         141.8806  144.3322  163.9265 C.3     1  UNL1        0.0465
     15 C         141.2519  143.3741  164.8943 C.3     1  UNL1        0.0041
     16 C         142.1148  142.5685  165.8197 C.3     1  UNL1        0.0002
     17 C         143.6064  142.7210  165.7772 C.3     1  UNL1        0.0025
     18 C         144.2351  143.6791  164.8095 C.3     1  UNL1        0.0293
     19 C         143.3722  144.4847  163.8841 C.3     1  UNL1        0.1121
     20 O         144.0010  145.4429  162.9162 O.3     1  UNL1       -0.3844
     21 H         143.3077  145.8793  162.3968 H       1  UNL1        0.2103
     22 C         137.8094  144.0456  154.2683 C.3     1  UNL1        0.1007
     23 C         136.9637  142.8068  154.2828 C.ar    1  UNL1        0.0129
     24 C         137.2076  141.5633  153.4803 C.ar    1  UNL1        0.0176
     25 C         136.1202  140.5820  153.8040 C.ar    1  UNL1        0.0799
     26 N         135.2043  141.2191  154.8066 N.ar    1  UNL1       -0.3038
     27 C         135.7256  142.5941  155.1025 C.ar    1  UNL1        0.0772
     28 C         133.9817  140.5914  155.4077 C.ar    1  UNL1        0.0640
     29 C         134.0612  139.2188  156.0074 C.ar    1  UNL1        0.0175
     30 C         132.8386  138.5911  156.6085 C.ar    1  UNL1        0.0053
     31 C         131.5366  139.3360  156.6100 C.ar    1  UNL1        0.0715
     32 C         131.4572  140.7087  156.0103 C.ar    1  UNL1        0.0053
     33 C         132.6797  141.3363  155.4092 C.ar    1  UNL1        0.0175
     34 C         130.3141  138.7084  157.2111 C.3     1  UNL1        0.4186
     35 F         129.0916  138.0807  157.8122 F       1  UNL1       -0.1659
     36 F         130.3169  139.7430  158.2971 F       1  UNL1       -0.1659
     37 F         130.3113  137.6737  156.1251 F       1  UNL1       -0.1659
@<TRIPOS>BOND
     1     7     8    2
     2     8     9   am
     3     9    13    1
     4    14    13    1
     5    14    15    1
     6    15    16    1
     7    16    17    1
     8    17    18    1
     9    18    19    1
    10    19    20    1
    11     8    10   am
    12    10     1    1
    13     1     2    1
    14     2     3    1
    15     3     4    1
    16     4    22    1
    17    22    23    1
    18    23    24   ar
    19    24    25   ar
    20    25    26   ar
    21    26    28    1
    22    28    29   ar
    23    29    30   ar
    24    30    31   ar
    25    31    34    1
    26    34    35    1
    27    34    36    1
    28    34    37    1
    29    31    32   ar
    30    32    33   ar
    31    26    27   ar
    32     4     5    1
    33     5     6    1
    34    19    14    1
    35     6     1    1
    36    27    23   ar
    37    33    28   ar
    38     9    11    1
    39    20    21    1
    40    10    12    1
@<TRIPOS>MOLECULE
*****
 37 40 0 0 0
SMALL
GASTEIGER

@<TRIPOS>ATOM
      1 C         142.5385  139.3496  158.5048 C.3     1  UNL1        0.0758
      2 C         142.5714  138.3575  159.6295 C.3     1  UNL1        0.0370
      3 C         141.3860  138.2131  160.5371 C.3     1  UNL1        0.0741
      4 N         140.1676  139.0608  160.3201 N.3     1  UNL1       -0.2688
      5 C         140.1347  140.0528  159.1955 C.3     1  UNL1        0.0741
      6 C         141.3202  140.1973  158.2879 C.3     1  UNL1        0.0370
      7 O         144.1536  141.8775  158.5377 O.2     1  UNL1       -0.2528
      8 C         144.5315  140.7579  157.6136 C.2     1  UNL1        0.3007
      9 N         145.7171  140.9024  156.7060 N.am    1  UNL1       -0.2889
     10 N         143.7240  139.4940  157.5972 N.am    1  UNL1       -0.2905
     11 H         145.9651  140.1676  156.0995 H       1  UNL1        0.1510
     12 H         143.9720  138.7592  156.9908 H       1  UNL1        0.1509
     13 C         146.5246  142.1663  156.7224 C.3     1  UNL1        0.0933
     14 C         147.4788  142.4614  155.6032 C.3     1  UNL1        0.0465
     15 C         148.8036  141.7607  155.5428 C.3     1  UNL1        0.0041
     16 C         149.7577  142.0557  154.4236 C.3     1  UNL1        0.0002
     17 C         149.3869  143.0514  153.3648 C.3     1  UNL1        0.0025
     18 C         148.0620  143.7521  153.4252 C.3     1  UNL1        0.0293
     19 C         147.1080  143.4571  154.5444 C.3     1  UNL1        0.1121
     20 O         145.7830  144.1577  154.6048 O.3     1  UNL1       -0.3844
     21 H         145.2921  143.8544  155.3845 H       1  UNL1        0.2103
     22 C         138.9821  138.9164  161.2277 C.3     1  UNL1        0.1007
     23 C         139.0420  139.4464  162.6297 C.ar    1  UNL1        0.0129
     24 C         138.0938  140.4360  163.2394 C.ar    1  UNL1        0.0176
     25 C         138.5263  140.6811  164.6546 C.ar    1  UNL1        0.0799
     26 N         139.7418  139.8429  164.9196 N.ar    1  UNL1       -0.3038
     27 C         140.0605  139.0799  163.6682 C.ar    1  UNL1        0.0772
     28 C         140.5047  139.7791  166.2096 C.ar    1  UNL1        0.0640
     29 C         141.9437  139.3559  166.2097 C.ar    1  UNL1        0.0175
     30 C         142.7066  139.2921  167.4996 C.ar    1  UNL1        0.0053
     31 C         142.0303  139.6514  168.7895 C.ar    1  UNL1        0.0715
     32 C         140.5913  140.0746  168.7894 C.ar    1  UNL1        0.0053
     33 C         139.8284  140.1384  167.4994 C.ar    1  UNL1        0.0175
     34 C         142.7932  139.5876  170.0794 C.3     1  UNL1        0.4186
     35 F         143.5560  139.5237  171.3693 F       1  UNL1       -0.1659
     36 F         142.7745  141.0850  170.1646 F       1  UNL1       -0.1659
     37 F         142.8119  138.0901  169.9942 F       1  UNL1       -0.1659
@<TRIPOS>BOND
     1     7     8    2
     2     8     9   am
     3     9    13    1
     4    14    13    1
     5    14    15    1
     6    15    16    1
     7    16    17    1
     8    17    18    1
     9    18    19    1
    10    19    20    1
    11     8    10   am
    12    10     1    1
    13     1     2    1
    14     2     3    1
    15     3     4    1
    16     4    22    1
    17    22    23    1
    18    23    24   ar
    19    24    25   ar
    20    25    26   ar
    21    26    28    1
    22    28    29   ar
    23    29    30   ar
    24    30    31   ar
    25    31    34    1
    26    34    35    1
    27    34    36    1
    28    34    37    1
    29    31    32   ar
    30    32    33   ar
    31    26    27   ar
    32     4     5    1
    33     5     6    1
    34    19    14    1
    35     6     1    1
    36    27    23   ar
    37    33    28   ar
    38     9    11    1
    39    20    21    1
    40    10    12    1
