@<TRIPOS>MOLECULE
*****
 38 43 0 0 0
SMALL
GASTEIGER

@<TRIPOS>ATOM
      1 C         137.8405  142.9406  163.2198 C.3     1  UNL1        0.0932
      2 C         138.0539  142.7834  161.7434 C.3     1  UNL1        0.0286
      3 C         138.0712  141.4148  161.1297 C.3     1  UNL1        0.0193
      4 C         137.8751  140.2034  161.9923 C.3     1  UNL1        0.0700
      5 C         137.6616  140.3607  163.4687 C.3     1  UNL1        0.0193
      6 C         137.6443  141.7293  164.0825 C.3     1  UNL1        0.0286
      7 C         137.8576  140.9328  162.3740 C.3     1  UNL1        0.1562
      8 O         137.8420  142.1703  162.9290 O.3     1  UNL1       -0.3572
      9 N         137.8924  138.8349  161.3786 N.3     1  UNL1       -0.2926
     10 H         137.3258  138.8847  160.5319 H       1  UNL1        0.1236
     11 C         139.1964  138.2034  160.9904 C.3     1  UNL1        0.1152
     12 C         140.3909  138.3369  161.8878 C.ar    1  UNL1        0.0765
     13 C         140.5339  137.4432  163.0841 C.ar    1  UNL1        0.0193
     14 C         141.7284  137.5767  163.9815 C.ar    1  UNL1        0.0411
     15 C         142.7799  138.6039  163.6827 C.ar    1  UNL1        0.1708
     16 C         142.6369  139.4976  162.4866 C.ar    1  UNL1        0.1682
     17 N         141.4424  139.3641  161.5891 N.ar    1  UNL1       -0.2304
     18 N         143.6884  140.5247  162.1878 N.am    1  UNL1       -0.2639
     19 C         144.8829  140.6582  163.0852 C.2     1  UNL1        0.2718
     20 O         145.9344  141.6854  162.7864 O.2     1  UNL1       -0.2707
     21 C         145.0259  139.7645  164.2814 C.3     1  UNL1        0.2898
     22 O         143.9744  138.7374  164.5802 O.3     1  UNL1       -0.4628
     23 H         143.5946  141.1113  161.4027 H       1  UNL1        0.1565
     24 C         137.8232  144.3092  163.8335 C.3     1  UNL1        0.0320
     25 C         138.8830  144.7024  164.8196 C.3     1  UNL1        0.0327
     26 C         140.6983  141.4518  167.3470 C.ar    1  UNL1        0.1492
     27 C         142.1219  141.0352  167.1240 C.ar    1  UNL1        0.0312
     28 C         142.9404  141.7022  166.0586 C.ar    1  UNL1        0.0229
     29 C         142.3353  142.7857  165.2161 C.ar    1  UNL1        0.0988
     30 N         143.1538  143.4527  164.1506 N.ar    1  UNL1       -0.2400
     31 C         142.5488  144.5362  163.3082 C.ar    1  UNL1        0.1281
     32 C         141.1251  144.9528  163.5311 C.ar    1  UNL1        0.1566
     33 F         140.5200  146.0363  162.6887 F       1  UNL1       -0.2028
     34 C         140.3066  144.2859  164.5966 C.ar    1  UNL1        0.0260
     35 C         140.9117  143.2023  165.4391 C.ar    1  UNL1        0.0978
     36 N         140.0932  142.5353  166.5046 N.ar    1  UNL1       -0.2338
     37 N         139.0613  140.1179  169.4779 N.1     1  UNL1       -0.1893
     38 C         139.8798  140.7849  168.4125 C.1     1  UNL1        0.1198
@<TRIPOS>BOND
     1    37    38    3
     2    38    26    1
     3    26    27   ar
     4    27    28   ar
     5    28    29   ar
     6    29    30   ar
     7    30    31   ar
     8    31    32   ar
     9    32    33    1
    10    32    34   ar
    11    34    25    1
    12    25    24    1
    13    24     1    1
    14     1     2    1
    15     2     3    1
    16     3     4    1
    17     4     9    1
    18     9    11    1
    19    11    12    1
    20    12    13   ar
    21    13    14   ar
    22    14    15   ar
    23    15    16   ar
    24    16    17   ar
    25    16    18    1
    26    18    19   am
    27    19    20    2
    28    19    21    1
    29    21    22    1
    30     4     5    1
    31     5     6    1
    32     4     7    1
    33     7     8    1
    34    34    35   ar
    35    35    36   ar
    36    36    26   ar
    37    35    29   ar
    38     6     1    1
    39     8     1    1
    40    17    12   ar
    41    22    15    1
    42     9    10    1
    43    18    23    1
@<TRIPOS>MOLECULE
*****
 38 43 0 0 0
SMALL
GASTEIGER

@<TRIPOS>ATOM
      1 C         144.6330  140.2371  163.5183 C.3     1  UNL1        0.0932
      2 C         144.1890  140.0998  162.0921 C.3     1  UNL1        0.0286
      3 C         143.1188  139.1127  161.7315 C.3     1  UNL1        0.0193
      4 C         142.4925  138.2627  162.7971 C.3     1  UNL1        0.0700
      5 C         142.9364  138.4000  164.2233 C.3     1  UNL1        0.0193
      6 C         144.0067  139.3872  164.5839 C.3     1  UNL1        0.0286
      7 C         143.0753  138.7897  163.0430 C.3     1  UNL1        0.1562
      8 O         144.0431  139.6823  163.3692 O.3     1  UNL1       -0.3572
      9 N         141.4222  137.2756  162.4364 N.3     1  UNL1       -0.2926
     10 H         141.2769  136.6863  163.2562 H       1  UNL1        0.1236
     11 C         140.0694  137.7599  162.0059 C.3     1  UNL1        0.1152
     12 C         139.4514  138.9514  162.6753 C.ar    1  UNL1        0.0765
     13 C         138.7628  138.7949  163.9987 C.ar    1  UNL1        0.0193
     14 C         138.1447  139.9865  164.6682 C.ar    1  UNL1        0.0411
     15 C         138.2152  141.3346  164.0142 C.ar    1  UNL1        0.1708
     16 C         138.9038  141.4911  162.6909 C.ar    1  UNL1        0.1682
     17 N         139.5219  140.2995  162.0214 N.ar    1  UNL1       -0.2304
     18 N         138.9743  142.8392  162.0369 N.am    1  UNL1       -0.2639
     19 C         138.3562  144.0308  162.7063 C.2     1  UNL1        0.2718
     20 O         138.4267  145.3789  162.0524 O.2     1  UNL1       -0.2707
     21 C         137.6676  143.8743  164.0297 C.3     1  UNL1        0.2898
     22 O         137.5971  142.5262  164.6837 O.3     1  UNL1       -0.4628
     23 H         139.4262  142.9420  161.1683 H       1  UNL1        0.1565
     24 C         145.7032  141.2242  163.8790 C.3     1  UNL1        0.0320
     25 C         145.3366  142.5199  164.5400 C.3     1  UNL1        0.0327
     26 C         142.2802  141.6539  167.7272 C.ar    1  UNL1        0.1492
     27 C         140.8871  142.1944  167.5970 C.ar    1  UNL1        0.0312
     28 C         140.5127  143.0236  166.4044 C.ar    1  UNL1        0.0229
     29 C         141.5315  143.3123  165.3420 C.ar    1  UNL1        0.0988
     30 N         141.1571  144.1414  164.1494 N.ar    1  UNL1       -0.2400
     31 C         142.1759  144.4301  163.0870 C.ar    1  UNL1        0.1281
     32 C         143.5691  143.8896  163.2172 C.ar    1  UNL1        0.1566
     33 F         144.5879  144.1782  162.1548 F       1  UNL1       -0.2028
     34 C         143.9435  143.0604  164.4098 C.ar    1  UNL1        0.0260
     35 C         142.9246  142.7718  165.4722 C.ar    1  UNL1        0.0978
     36 N         143.2990  141.9426  166.6648 N.ar    1  UNL1       -0.2338
     37 N         143.0289  139.9956  170.1125 N.1     1  UNL1       -0.1893
     38 C         142.6546  140.8248  168.9198 C.1     1  UNL1        0.1198
@<TRIPOS>BOND
     1    37    38    3
     2    38    26    1
     3    26    27   ar
     4    27    28   ar
     5    28    29   ar
     6    29    30   ar
     7    30    31   ar
     8    31    32   ar
     9    32    33    1
    10    32    34   ar
    11    34    25    1
    12    25    24    1
    13    24     1    1
    14     1     2    1
    15     2     3    1
    16     3     4    1
    17     4     9    1
    18     9    11    1
    19    11    12    1
    20    12    13   ar
    21    13    14   ar
    22    14    15   ar
    23    15    16   ar
    24    16    17   ar
    25    16    18    1
    26    18    19   am
    27    19    20    2
    28    19    21    1
    29    21    22    1
    30     4     5    1
    31     5     6    1
    32     4     7    1
    33     7     8    1
    34    34    35   ar
    35    35    36   ar
    36    36    26   ar
    37    35    29   ar
    38     6     1    1
    39     8     1    1
    40    17    12   ar
    41    22    15    1
    42     9    10    1
    43    18    23    1
@<TRIPOS>MOLECULE
*****
 38 43 0 0 0
SMALL
GASTEIGER

@<TRIPOS>ATOM
      1 C         142.0294  138.0934  164.1357 C.3     1  UNL1        0.0932
      2 C         142.2495  138.4098  162.6861 C.3     1  UNL1        0.0286
      3 C         143.4286  139.2383  162.2699 C.3     1  UNL1        0.0193
      4 C         144.3877  139.7504  163.3033 C.3     1  UNL1        0.0700
      5 C         144.1676  139.4340  164.7530 C.3     1  UNL1        0.0193
      6 C         142.9884  138.6055  165.1692 C.3     1  UNL1        0.0286
      7 C         143.7560  139.3003  163.5796 C.3     1  UNL1        0.1562
      8 O         142.6898  138.5512  163.9560 O.3     1  UNL1       -0.3572
      9 N         145.5668  140.5788  162.8871 N.3     1  UNL1       -0.2926
     10 H         145.5969  140.5571  161.8678 H       1  UNL1        0.1236
     11 C         145.6509  142.0207  163.2921 C.3     1  UNL1        0.1152
     12 C         144.4455  142.9051  163.1712 C.ar    1  UNL1        0.0765
     13 C         143.8232  143.4972  164.4010 C.ar    1  UNL1        0.0193
     14 C         142.6178  144.3816  164.2801 C.ar    1  UNL1        0.0411
     15 C         142.0346  144.6741  162.9294 C.ar    1  UNL1        0.1708
     16 C         142.6568  144.0821  161.6996 C.ar    1  UNL1        0.1682
     17 N         143.8622  143.1976  161.8205 N.ar    1  UNL1       -0.2304
     18 N         142.0736  144.3746  160.3490 N.am    1  UNL1       -0.2639
     19 C         140.8681  145.2590  160.2280 C.2     1  UNL1        0.2718
     20 O         140.2849  145.5515  158.8774 O.2     1  UNL1       -0.2707
     21 C         140.2459  145.8511  161.4578 C.3     1  UNL1        0.2898
     22 O         140.8291  145.5586  162.8085 O.3     1  UNL1       -0.4628
     23 H         142.4819  143.9860  159.5418 H       1  UNL1        0.1565
     24 C         140.8502  137.2650  164.5520 C.3     1  UNL1        0.0320
     25 C         139.5707  137.9332  164.9599 C.3     1  UNL1        0.0327
     26 C         140.1392  142.1415  166.4486 C.ar    1  UNL1        0.1492
     27 C         139.6093  143.2968  165.6521 C.ar    1  UNL1        0.0312
     28 C         138.8899  143.0493  164.3593 C.ar    1  UNL1        0.0229
     29 C         138.7004  141.6466  163.8631 C.ar    1  UNL1        0.0988
     30 N         137.9810  141.3991  162.5703 N.ar    1  UNL1       -0.2400
     31 C         137.7915  139.9963  162.0741 C.ar    1  UNL1        0.1281
     32 C         138.3214  138.8409  162.8706 C.ar    1  UNL1        0.1566
     33 F         138.1319  137.4382  162.3744 F       1  UNL1       -0.2028
     34 C         139.0408  139.0884  164.1634 C.ar    1  UNL1        0.0260
     35 C         139.2303  140.4913  164.6596 C.ar    1  UNL1        0.0978
     36 N         139.9497  140.7388  165.9523 N.ar    1  UNL1       -0.2338
     37 N         141.5780  142.6365  169.0341 N.1     1  UNL1       -0.1893
     38 C         140.8586  142.3890  167.7413 C.1     1  UNL1        0.1198
@<TRIPOS>BOND
     1    37    38    3
     2    38    26    1
     3    26    27   ar
     4    27    28   ar
     5    28    29   ar
     6    29    30   ar
     7    30    31   ar
     8    31    32   ar
     9    32    33    1
    10    32    34   ar
    11    34    25    1
    12    25    24    1
    13    24     1    1
    14     1     2    1
    15     2     3    1
    16     3     4    1
    17     4     9    1
    18     9    11    1
    19    11    12    1
    20    12    13   ar
    21    13    14   ar
    22    14    15   ar
    23    15    16   ar
    24    16    17   ar
    25    16    18    1
    26    18    19   am
    27    19    20    2
    28    19    21    1
    29    21    22    1
    30     4     5    1
    31     5     6    1
    32     4     7    1
    33     7     8    1
    34    34    35   ar
    35    35    36   ar
    36    36    26   ar
    37    35    29   ar
    38     6     1    1
    39     8     1    1
    40    17    12   ar
    41    22    15    1
    42     9    10    1
    43    18    23    1
@<TRIPOS>MOLECULE
*****
 38 43 0 0 0
SMALL
GASTEIGER

@<TRIPOS>ATOM
      1 C         142.6539  144.4207  163.3669 C.3     1  UNL1        0.0932
      2 C         142.5149  143.9019  161.9663 C.3     1  UNL1        0.0286
      3 C         141.1524  143.7139  161.3680 C.3     1  UNL1        0.0193
      4 C         139.9288  144.0447  162.1701 C.3     1  UNL1        0.0700
      5 C         140.0678  144.5635  163.5707 C.3     1  UNL1        0.0193
      6 C         141.4304  144.7515  164.1690 C.3     1  UNL1        0.0286
      7 C         140.6542  144.1642  162.5407 C.3     1  UNL1        0.1562
      8 O         141.8863  144.3342  163.0818 O.3     1  UNL1       -0.3572
      9 N         138.5662  143.8567  161.5718 N.3     1  UNL1       -0.2926
     10 H         138.4727  144.5494  160.8289 H       1  UNL1        0.1236
     11 C         138.1831  142.5327  160.9800 C.3     1  UNL1        0.1152
     12 C         138.3742  141.2735  161.7724 C.ar    1  UNL1        0.0765
     13 C         138.8900  140.0355  161.1005 C.ar    1  UNL1        0.0193
     14 C         139.0811  138.7763  161.8929 C.ar    1  UNL1        0.0411
     15 C         138.7565  138.7551  163.3572 C.ar    1  UNL1        0.1708
     16 C         138.2407  139.9930  164.0291 C.ar    1  UNL1        0.1682
     17 N         138.0496  141.2523  163.2367 N.ar    1  UNL1       -0.2304
     18 N         137.9160  139.9718  165.4934 N.am    1  UNL1       -0.2639
     19 C         138.1071  138.7126  166.2858 C.2     1  UNL1        0.2718
     20 O         137.7825  138.6914  167.7501 O.2     1  UNL1       -0.2707
     21 C         138.6229  137.4746  165.6139 C.3     1  UNL1        0.2898
     22 O         138.9476  137.4958  164.1496 O.3     1  UNL1       -0.4628
     23 H         137.5775  140.7843  165.9343 H       1  UNL1        0.1565
     24 C         144.0165  144.6087  163.9652 C.3     1  UNL1        0.0320
     25 C         144.4757  143.7163  165.0801 C.3     1  UNL1        0.0327
     26 C         141.4610  141.8574  167.8561 C.ar    1  UNL1        0.1492
     27 C         141.1943  140.3826  167.7946 C.ar    1  UNL1        0.0312
     28 C         141.9324  139.5275  166.8078 C.ar    1  UNL1        0.0229
     29 C         142.9373  140.1471  165.8824 C.ar    1  UNL1        0.0988
     30 N         143.6755  139.2919  164.8956 N.ar    1  UNL1       -0.2400
     31 C         144.6803  139.9115  163.9703 C.ar    1  UNL1        0.1281
     32 C         144.9471  141.3863  164.0318 C.ar    1  UNL1        0.1566
     33 F         145.9520  142.0059  163.1065 F       1  UNL1       -0.2028
     34 C         144.2090  142.2415  165.0186 C.ar    1  UNL1        0.0260
     35 C         143.2040  141.6218  165.9439 C.ar    1  UNL1        0.0978
     36 N         142.4659  142.4770  166.9307 N.ar    1  UNL1       -0.2338
     37 N         139.9847  143.5678  169.8297 N.1     1  UNL1       -0.1893
     38 C         140.7228  142.7126  168.8429 C.1     1  UNL1        0.1198
@<TRIPOS>BOND
     1    37    38    3
     2    38    26    1
     3    26    27   ar
     4    27    28   ar
     5    28    29   ar
     6    29    30   ar
     7    30    31   ar
     8    31    32   ar
     9    32    33    1
    10    32    34   ar
    11    34    25    1
    12    25    24    1
    13    24     1    1
    14     1     2    1
    15     2     3    1
    16     3     4    1
    17     4     9    1
    18     9    11    1
    19    11    12    1
    20    12    13   ar
    21    13    14   ar
    22    14    15   ar
    23    15    16   ar
    24    16    17   ar
    25    16    18    1
    26    18    19   am
    27    19    20    2
    28    19    21    1
    29    21    22    1
    30     4     5    1
    31     5     6    1
    32     4     7    1
    33     7     8    1
    34    34    35   ar
    35    35    36   ar
    36    36    26   ar
    37    35    29   ar
    38     6     1    1
    39     8     1    1
    40    17    12   ar
    41    22    15    1
    42     9    10    1
    43    18    23    1
@<TRIPOS>MOLECULE
*****
 38 43 0 0 0
SMALL
GASTEIGER

@<TRIPOS>ATOM
      1 C         144.4617  139.7284  163.7208 C.3     1  UNL1        0.0932
      2 C         143.5347  139.3139  164.8248 C.3     1  UNL1        0.0286
      3 C         142.3650  138.4233  164.5273 C.3     1  UNL1        0.0193
      4 C         142.1221  137.9472  163.1257 C.3     1  UNL1        0.0700
      5 C         143.0490  138.3618  162.0217 C.3     1  UNL1        0.0193
      6 C         144.2188  139.2524  162.3192 C.3     1  UNL1        0.0286
      7 C         142.7763  138.4340  163.2401 C.3     1  UNL1        0.1562
      8 O         143.8340  139.2392  163.5091 O.3     1  UNL1       -0.3572
      9 N         140.9523  137.0567  162.8282 N.3     1  UNL1       -0.2926
     10 H         140.7801  136.5060  163.6693 H       1  UNL1        0.1236
     11 C         139.6372  137.6554  162.4258 C.3     1  UNL1        0.1152
     12 C         139.1832  138.9479  163.0366 C.ar    1  UNL1        0.0765
     13 C         138.6225  138.9639  164.4278 C.ar    1  UNL1        0.0193
     14 C         138.1685  140.2564  165.0387 C.ar    1  UNL1        0.0411
     15 C         138.2752  141.5330  164.2584 C.ar    1  UNL1        0.1708
     16 C         138.8359  141.5171  162.8673 C.ar    1  UNL1        0.1682
     17 N         139.2899  140.2245  162.2563 N.ar    1  UNL1       -0.2304
     18 N         138.9426  142.7937  162.0870 N.am    1  UNL1       -0.2639
     19 C         138.4886  144.0863  162.6978 C.2     1  UNL1        0.2718
     20 O         138.5953  145.3629  161.9175 O.2     1  UNL1       -0.2707
     21 C         137.9279  144.1023  164.0890 C.3     1  UNL1        0.2898
     22 O         137.8212  142.8256  164.8693 O.3     1  UNL1       -0.4628
     23 H         139.3106  142.7833  161.1739 H       1  UNL1        0.1565
     24 C         145.6314  140.6189  164.0183 C.3     1  UNL1        0.0320
     25 C         145.6458  142.0317  163.5142 C.3     1  UNL1        0.0327
     26 C         144.0780  142.7262  159.3538 C.ar    1  UNL1        0.1492
     27 C         142.7875  143.4637  159.1520 C.ar    1  UNL1        0.0312
     28 C         142.0197  143.9697  160.3370 C.ar    1  UNL1        0.0229
     29 C         142.5422  143.7382  161.7238 C.ar    1  UNL1        0.0988
     30 N         141.7744  144.2443  162.9089 N.ar    1  UNL1       -0.2400
     31 C         142.2970  144.0128  164.2957 C.ar    1  UNL1        0.1281
     32 C         143.5875  143.2752  164.4975 C.ar    1  UNL1        0.1566
     33 F         144.1101  143.0438  165.8843 F       1  UNL1       -0.2028
     34 C         144.3554  142.7692  163.3125 C.ar    1  UNL1        0.0260
     35 C         143.8327  143.0007  161.9256 C.ar    1  UNL1        0.0978
     36 N         144.6006  142.4947  160.7406 N.ar    1  UNL1       -0.2338
     37 N         145.6137  141.7141  156.9837 N.1     1  UNL1       -0.1893
     38 C         144.8458  142.2202  158.1687 C.1     1  UNL1        0.1198
@<TRIPOS>BOND
     1    37    38    3
     2    38    26    1
     3    26    27   ar
     4    27    28   ar
     5    28    29   ar
     6    29    30   ar
     7    30    31   ar
     8    31    32   ar
     9    32    33    1
    10    32    34   ar
    11    34    25    1
    12    25    24    1
    13    24     1    1
    14     1     2    1
    15     2     3    1
    16     3     4    1
    17     4     9    1
    18     9    11    1
    19    11    12    1
    20    12    13   ar
    21    13    14   ar
    22    14    15   ar
    23    15    16   ar
    24    16    17   ar
    25    16    18    1
    26    18    19   am
    27    19    20    2
    28    19    21    1
    29    21    22    1
    30     4     5    1
    31     5     6    1
    32     4     7    1
    33     7     8    1
    34    34    35   ar
    35    35    36   ar
    36    36    26   ar
    37    35    29   ar
    38     6     1    1
    39     8     1    1
    40    17    12   ar
    41    22    15    1
    42     9    10    1
    43    18    23    1
@<TRIPOS>MOLECULE
*****
 38 43 0 0 0
SMALL
GASTEIGER

@<TRIPOS>ATOM
      1 C         139.2296  143.8980  164.0183 C.3     1  UNL1        0.0932
      2 C         140.2564  143.2660  164.9106 C.3     1  UNL1        0.0286
      3 C         141.6902  143.6988  164.8280 C.3     1  UNL1        0.0193
      4 C         142.0973  144.7636  163.8530 C.3     1  UNL1        0.0700
      5 C         141.0705  145.3956  162.9606 C.3     1  UNL1        0.0193
      6 C         139.6366  144.9627  163.0433 C.3     1  UNL1        0.0286
      7 C         141.2997  144.5594  163.8620 C.3     1  UNL1        0.1562
      8 O         140.0032  144.1681  163.9367 O.3     1  UNL1       -0.3572
      9 N         143.5311  145.1964  163.7704 N.3     1  UNL1       -0.2926
     10 H         143.9201  145.1074  164.7091 H       1  UNL1        0.1236
     11 C         144.4750  144.4914  162.8419 C.3     1  UNL1        0.1152
     12 C         144.4749  142.9933  162.7677 C.ar    1  UNL1        0.0765
     13 C         145.0433  142.1863  163.8972 C.ar    1  UNL1        0.0193
     14 C         145.0431  140.6881  163.8230 C.ar    1  UNL1        0.0411
     15 C         144.4747  139.9969  162.6192 C.ar    1  UNL1        0.1708
     16 C         143.9063  140.8038  161.4897 C.ar    1  UNL1        0.1682
     17 N         143.9064  142.3021  161.5639 N.ar    1  UNL1       -0.2304
     18 N         143.3379  140.1126  160.2859 N.am    1  UNL1       -0.2639
     19 C         143.3377  138.6145  160.2116 C.2     1  UNL1        0.2718
     20 O         142.7693  137.9233  159.0079 O.2     1  UNL1       -0.2707
     21 C         143.9061  137.8075  161.3412 C.3     1  UNL1        0.2898
     22 O         144.4745  138.4987  162.5450 O.3     1  UNL1       -0.4628
     23 H         142.9648  140.6423  159.5446 H       1  UNL1        0.1565
     24 C         137.7958  143.4652  164.1009 C.3     1  UNL1        0.0320
     25 C         137.2883  142.3758  163.2033 C.3     1  UNL1        0.0327
     26 C         138.3359  138.5952  165.4077 C.ar    1  UNL1        0.1492
     27 C         139.2958  137.6149  164.8013 C.ar    1  UNL1        0.0312
     28 C         139.9065  137.8949  163.4601 C.ar    1  UNL1        0.0229
     29 C         139.5573  139.1550  162.7253 C.ar    1  UNL1        0.0988
     30 N         140.1679  139.4350  161.3842 N.ar    1  UNL1       -0.2400
     31 C         139.8187  140.6952  160.6494 C.ar    1  UNL1        0.1281
     32 C         138.8588  141.6755  161.2558 C.ar    1  UNL1        0.1566
     33 F         138.5096  142.9357  160.5210 F       1  UNL1       -0.2028
     34 C         138.2482  141.3955  162.5969 C.ar    1  UNL1        0.0260
     35 C         138.5974  140.1353  163.3317 C.ar    1  UNL1        0.0978
     36 N         137.9867  139.8553  164.6729 N.ar    1  UNL1       -0.2338
     37 N         137.1146  138.0353  168.0900 N.1     1  UNL1       -0.1893
     38 C         137.7253  138.3152  166.7488 C.1     1  UNL1        0.1198
@<TRIPOS>BOND
     1    37    38    3
     2    38    26    1
     3    26    27   ar
     4    27    28   ar
     5    28    29   ar
     6    29    30   ar
     7    30    31   ar
     8    31    32   ar
     9    32    33    1
    10    32    34   ar
    11    34    25    1
    12    25    24    1
    13    24     1    1
    14     1     2    1
    15     2     3    1
    16     3     4    1
    17     4     9    1
    18     9    11    1
    19    11    12    1
    20    12    13   ar
    21    13    14   ar
    22    14    15   ar
    23    15    16   ar
    24    16    17   ar
    25    16    18    1
    26    18    19   am
    27    19    20    2
    28    19    21    1
    29    21    22    1
    30     4     5    1
    31     5     6    1
    32     4     7    1
    33     7     8    1
    34    34    35   ar
    35    35    36   ar
    36    36    26   ar
    37    35    29   ar
    38     6     1    1
    39     8     1    1
    40    17    12   ar
    41    22    15    1
    42     9    10    1
    43    18    23    1
@<TRIPOS>MOLECULE
*****
 38 43 0 0 0
SMALL
GASTEIGER

@<TRIPOS>ATOM
      1 C         137.9990  140.1793  162.4300 C.3     1  UNL1        0.0932
      2 C         138.1975  140.9443  161.1551 C.3     1  UNL1        0.0286
      3 C         138.1170  142.4421  161.1588 C.3     1  UNL1        0.0193
      4 C         137.8380  143.1750  162.4375 C.3     1  UNL1        0.0700
      5 C         137.6395  142.4101  163.7124 C.3     1  UNL1        0.0193
      6 C         137.7199  140.9122  163.7087 C.3     1  UNL1        0.0286
      7 C         137.8728  142.3538  162.4850 C.3     1  UNL1        0.1562
      8 O         137.9456  140.9994  162.4817 O.3     1  UNL1       -0.3572
      9 N         137.7575  144.6728  162.4412 N.3     1  UNL1       -0.2926
     10 H         137.0560  144.9283  163.1362 H       1  UNL1        0.1236
     11 C         138.9802  145.4889  162.7399 C.3     1  UNL1        0.1152
     12 C         140.3329  144.8408  162.7397 C.ar    1  UNL1        0.0765
     13 C         141.0262  144.5516  164.0381 C.ar    1  UNL1        0.0193
     14 C         142.3790  143.9036  164.0379 C.ar    1  UNL1        0.0411
     15 C         143.0385  143.5447  162.7394 C.ar    1  UNL1        0.1708
     16 C         142.3452  143.8338  161.4410 C.ar    1  UNL1        0.1682
     17 N         140.9924  144.4819  161.4412 N.ar    1  UNL1       -0.2304
     18 N         143.0048  143.4749  160.1425 N.am    1  UNL1       -0.2639
     19 C         144.3575  142.8269  160.1423 C.2     1  UNL1        0.2718
     20 O         145.0170  142.4680  158.8437 O.2     1  UNL1       -0.2707
     21 C         145.0508  142.5377  161.4407 C.3     1  UNL1        0.2898
     22 O         144.3913  142.8966  162.7392 O.3     1  UNL1       -0.4628
     23 H         142.5497  143.6647  159.2903 H       1  UNL1        0.1565
     24 C         138.0795  138.6815  162.4263 C.3     1  UNL1        0.0320
     25 C         139.2088  137.9893  163.1303 C.3     1  UNL1        0.0327
     26 C         140.6784  139.9245  166.9178 C.ar    1  UNL1        0.1492
     27 C         142.0376  140.5577  166.9580 C.ar    1  UNL1        0.0312
     28 C         142.9070  140.5457  165.7356 C.ar    1  UNL1        0.0229
     29 C         142.4171  139.9007  164.4732 C.ar    1  UNL1        0.0988
     30 N         143.2865  139.8887  163.2508 N.ar    1  UNL1       -0.2400
     31 C         142.7966  139.2437  161.9884 C.ar    1  UNL1        0.1281
     32 C         141.4373  138.6105  161.9481 C.ar    1  UNL1        0.1566
     33 F         140.9475  137.9655  160.6857 F       1  UNL1       -0.2028
     34 C         140.5680  138.6224  163.1705 C.ar    1  UNL1        0.0260
     35 C         141.0579  139.2676  164.4330 C.ar    1  UNL1        0.0978
     36 N         140.1886  139.2795  165.6553 N.ar    1  UNL1       -0.2338
     37 N         138.9397  139.9484  169.3624 N.1     1  UNL1       -0.1893
     38 C         139.8091  139.9365  168.1401 C.1     1  UNL1        0.1198
@<TRIPOS>BOND
     1    37    38    3
     2    38    26    1
     3    26    27   ar
     4    27    28   ar
     5    28    29   ar
     6    29    30   ar
     7    30    31   ar
     8    31    32   ar
     9    32    33    1
    10    32    34   ar
    11    34    25    1
    12    25    24    1
    13    24     1    1
    14     1     2    1
    15     2     3    1
    16     3     4    1
    17     4     9    1
    18     9    11    1
    19    11    12    1
    20    12    13   ar
    21    13    14   ar
    22    14    15   ar
    23    15    16   ar
    24    16    17   ar
    25    16    18    1
    26    18    19   am
    27    19    20    2
    28    19    21    1
    29    21    22    1
    30     4     5    1
    31     5     6    1
    32     4     7    1
    33     7     8    1
    34    34    35   ar
    35    35    36   ar
    36    36    26   ar
    37    35    29   ar
    38     6     1    1
    39     8     1    1
    40    17    12   ar
    41    22    15    1
    42     9    10    1
    43    18    23    1
@<TRIPOS>MOLECULE
*****
 38 43 0 0 0
SMALL
GASTEIGER

@<TRIPOS>ATOM
      1 C         137.8523  140.5755  161.8087 C.3     1  UNL1        0.0932
      2 C         138.5980  141.6190  161.0308 C.3     1  UNL1        0.0286
      3 C         138.8469  142.9693  161.6346 C.3     1  UNL1        0.0193
      4 C         138.3502  143.2762  163.0163 C.3     1  UNL1        0.0700
      5 C         137.6046  142.2327  163.7942 C.3     1  UNL1        0.0193
      6 C         137.3556  140.8823  163.1904 C.3     1  UNL1        0.0286
      7 C         138.1897  142.5221  162.7274 C.3     1  UNL1        0.1562
      8 O         137.9646  141.3010  162.1815 O.3     1  UNL1       -0.3572
      9 N         138.5992  144.6265  163.6201 N.3     1  UNL1       -0.2926
     10 H         137.7363  144.9032  164.0885 H       1  UNL1        0.1236
     11 C         139.7089  144.8115  164.6122 C.3     1  UNL1        0.1152
     12 C         141.0983  144.3565  164.2768 C.ar    1  UNL1        0.0765
     13 C         142.0548  145.2984  163.6073 C.ar    1  UNL1        0.0193
     14 C         143.4442  144.8435  163.2719 C.ar    1  UNL1        0.0411
     15 C         143.8772  143.4467  163.6059 C.ar    1  UNL1        0.1708
     16 C         142.9208  142.5048  164.2753 C.ar    1  UNL1        0.1682
     17 N         141.5313  142.9598  164.6107 N.ar    1  UNL1       -0.2304
     18 N         143.3538  141.1081  164.6093 N.am    1  UNL1       -0.2639
     19 C         144.7432  140.6531  164.2738 C.2     1  UNL1        0.2718
     20 O         145.1762  139.2564  164.6078 O.2     1  UNL1       -0.2707
     21 C         145.6997  141.5950  163.6044 C.3     1  UNL1        0.2898
     22 O         145.2667  142.9918  163.2704 O.3     1  UNL1       -0.4628
     23 H         142.7260  140.4899  165.0486 H       1  UNL1        0.1565
     24 C         137.6034  139.2252  161.2049 C.3     1  UNL1        0.0320
     25 C         138.1548  137.9956  161.8640 C.3     1  UNL1        0.0327
     26 C         141.9561  138.3152  159.4771 C.ar    1  UNL1        0.1492
     27 C         143.2803  138.3705  160.1795 C.ar    1  UNL1        0.0312
     28 C         143.3374  138.3194  161.6775 C.ar    1  UNL1        0.0229
     29 C         142.0703  138.2129  162.4732 C.ar    1  UNL1        0.0988
     30 N         142.1274  138.1617  163.9712 N.ar    1  UNL1       -0.2400
     31 C         140.8603  138.0552  164.7669 C.ar    1  UNL1        0.1281
     32 C         139.5361  137.9998  164.0645 C.ar    1  UNL1        0.1566
     33 F         138.2690  137.8933  164.8601 F       1  UNL1       -0.2028
     34 C         139.4790  138.0510  162.5664 C.ar    1  UNL1        0.0260
     35 C         140.7461  138.1575  161.7708 C.ar    1  UNL1        0.0978
     36 N         140.6890  138.2087  160.2727 N.ar    1  UNL1       -0.2338
     37 N         141.8419  138.4175  156.4810 N.1     1  UNL1       -0.1893
     38 C         141.8990  138.3664  157.9791 C.1     1  UNL1        0.1198
@<TRIPOS>BOND
     1    37    38    3
     2    38    26    1
     3    26    27   ar
     4    27    28   ar
     5    28    29   ar
     6    29    30   ar
     7    30    31   ar
     8    31    32   ar
     9    32    33    1
    10    32    34   ar
    11    34    25    1
    12    25    24    1
    13    24     1    1
    14     1     2    1
    15     2     3    1
    16     3     4    1
    17     4     9    1
    18     9    11    1
    19    11    12    1
    20    12    13   ar
    21    13    14   ar
    22    14    15   ar
    23    15    16   ar
    24    16    17   ar
    25    16    18    1
    26    18    19   am
    27    19    20    2
    28    19    21    1
    29    21    22    1
    30     4     5    1
    31     5     6    1
    32     4     7    1
    33     7     8    1
    34    34    35   ar
    35    35    36   ar
    36    36    26   ar
    37    35    29   ar
    38     6     1    1
    39     8     1    1
    40    17    12   ar
    41    22    15    1
    42     9    10    1
    43    18    23    1
@<TRIPOS>MOLECULE
*****
 38 43 0 0 0
SMALL
GASTEIGER

@<TRIPOS>ATOM
      1 C         143.7723  143.1518  163.2934 C.3     1  UNL1        0.0932
      2 C         143.2230  143.2618  161.9019 C.3     1  UNL1        0.0286
      3 C         142.1879  144.2998  161.5841 C.3     1  UNL1        0.0193
      4 C         141.7020  145.2279  162.6578 C.3     1  UNL1        0.0700
      5 C         142.2513  145.1179  164.0492 C.3     1  UNL1        0.0193
      6 C         143.2865  144.0798  164.3670 C.3     1  UNL1        0.0286
      7 C         142.2704  144.6750  162.8798 C.3     1  UNL1        0.1562
      8 O         143.2063  143.7364  163.1672 O.3     1  UNL1       -0.3572
      9 N         140.6669  146.2659  162.3400 N.3     1  UNL1       -0.2926
     10 H         140.8478  146.5798  161.3865 H       1  UNL1        0.1236
     11 C         139.2095  145.9185  162.4124 C.3     1  UNL1        0.1152
     12 C         138.7706  144.4913  162.2696 C.ar    1  UNL1        0.0765
     13 C         138.2534  143.7428  163.4622 C.ar    1  UNL1        0.0193
     14 C         137.8145  142.3156  163.3193 C.ar    1  UNL1        0.0411
     15 C         137.8929  141.6368  161.9840 C.ar    1  UNL1        0.1708
     16 C         138.4101  142.3853  160.7914 C.ar    1  UNL1        0.1682
     17 N         138.8490  143.8126  160.9342 N.ar    1  UNL1       -0.2304
     18 N         138.4885  141.7066  159.4561 N.am    1  UNL1       -0.2639
     19 C         138.0496  140.2794  159.3133 C.2     1  UNL1        0.2718
     20 O         138.1280  139.6007  157.9779 O.2     1  UNL1       -0.2707
     21 C         137.5324  139.5308  160.5058 C.3     1  UNL1        0.2898
     22 O         137.4540  140.2095  161.8412 O.3     1  UNL1       -0.4628
     23 H         138.8279  142.1979  158.6734 H       1  UNL1        0.1565
     24 C         144.8074  142.1138  163.6112 C.3     1  UNL1        0.0320
     25 C         144.4294  140.8940  164.3983 C.3     1  UNL1        0.0327
     26 C         140.6155  141.3414  166.7444 C.ar    1  UNL1        0.1492
     27 C         139.4017  140.5479  166.3610 C.ar    1  UNL1        0.0312
     28 C         139.4592  139.6052  165.1957 C.ar    1  UNL1        0.0229
     29 C         140.7304  139.4561  164.4136 C.ar    1  UNL1        0.0988
     30 N         140.7879  138.5134  163.2483 N.ar    1  UNL1       -0.2400
     31 C         142.0592  138.3643  162.4662 C.ar    1  UNL1        0.1281
     32 C         143.2730  139.1578  162.8496 C.ar    1  UNL1        0.1566
     33 F         144.5443  139.0087  162.0675 F       1  UNL1       -0.2028
     34 C         143.2156  140.1005  164.0149 C.ar    1  UNL1        0.0260
     35 C         141.9442  140.2496  164.7970 C.ar    1  UNL1        0.0978
     36 N         141.8868  141.1923  165.9623 N.ar    1  UNL1       -0.2338
     37 N         140.5006  143.2267  169.0751 N.1     1  UNL1       -0.1893
     38 C         140.5580  142.2841  167.9097 C.1     1  UNL1        0.1198
@<TRIPOS>BOND
     1    37    38    3
     2    38    26    1
     3    26    27   ar
     4    27    28   ar
     5    28    29   ar
     6    29    30   ar
     7    30    31   ar
     8    31    32   ar
     9    32    33    1
    10    32    34   ar
    11    34    25    1
    12    25    24    1
    13    24     1    1
    14     1     2    1
    15     2     3    1
    16     3     4    1
    17     4     9    1
    18     9    11    1
    19    11    12    1
    20    12    13   ar
    21    13    14   ar
    22    14    15   ar
    23    15    16   ar
    24    16    17   ar
    25    16    18    1
    26    18    19   am
    27    19    20    2
    28    19    21    1
    29    21    22    1
    30     4     5    1
    31     5     6    1
    32     4     7    1
    33     7     8    1
    34    34    35   ar
    35    35    36   ar
    36    36    26   ar
    37    35    29   ar
    38     6     1    1
    39     8     1    1
    40    17    12   ar
    41    22    15    1
    42     9    10    1
    43    18    23    1
