@<TRIPOS>MOLECULE
*****
 26 28 0 0 0
SMALL
GASTEIGER

@<TRIPOS>ATOM
      1 N         139.3343  138.9609  164.4214 N.3     1  UNL1       -0.2700
      2 C         140.1113  137.6799  164.4963 C.3     1  UNL1        0.0897
      3 C         141.0635  137.3149  163.3963 C.3     1  UNL1        0.0897
      4 N         141.2389  138.2309  162.2214 N.3     1  UNL1       -0.2700
      5 C         140.4619  139.5118  162.1465 C.3     1  UNL1        0.0897
      6 C         139.5097  139.8768  163.2465 C.3     1  UNL1        0.0897
      7 C         138.3821  139.3259  165.5214 C.3     1  UNL1        0.0769
      8 C         138.7875  139.1473  166.9544 C.3     1  UNL1        0.0437
      9 C         140.4795  142.6192  169.2637 C.ar    1  UNL1        0.2900
     10 C         139.7810  141.5063  169.9872 C.ar    1  UNL1        0.0749
     11 C         139.2170  140.3490  169.2174 C.ar    1  UNL1        0.0021
     12 C         139.3515  140.3046  167.7242 C.ar    1  UNL1       -0.0204
     13 C         140.0501  141.4174  167.0007 C.ar    1  UNL1        0.0021
     14 C         140.6141  142.5747  167.7705 C.ar    1  UNL1        0.0749
     15 O         142.4781  143.7583  170.4712 O.2     1  UNL1        0.0415
     16 N         141.0436  143.7765  170.0335 N.pl3   1  UNL1        0.0809
     17 O         140.1730  144.9519  170.3656 O.co2   1  UNL1       -0.5760
     18 C         142.1911  137.8659  161.1214 C.3     1  UNL1        0.0769
     19 C         143.6644  138.0824  161.3023 C.3     1  UNL1        0.0437
     20 C         144.1577  139.2418  162.1162 C.ar    1  UNL1       -0.0206
     21 C         144.5345  139.0422  163.5543 C.ar    1  UNL1       -0.0019
     22 C         145.0278  140.2016  164.3682 C.ar    1  UNL1        0.0293
     23 C         145.1444  141.5605  163.7440 C.ar    1  UNL1        0.1401
     24 F         145.6377  142.7199  164.5580 F       1  UNL1       -0.2042
     25 C         144.7676  141.7601  162.3058 C.ar    1  UNL1        0.0293
     26 C         144.2743  140.6007  161.4919 C.ar    1  UNL1       -0.0019
@<TRIPOS>UNITY_ATOM_ATTR
16 1
charge 1
17 1
charge -1
@<TRIPOS>BOND
     1    15    16    2
     2    16    17    1
     3    16     9    1
     4     9    10   ar
     5    10    11   ar
     6    11    12   ar
     7    12     8    1
     8     8     7    1
     9     7     1    1
    10     1     2    1
    11     2     3    1
    12     3     4    1
    13     4    18    1
    14    18    19    1
    15    19    20    1
    16    20    21   ar
    17    21    22   ar
    18    22    23   ar
    19    23    24    1
    20    23    25   ar
    21    25    26   ar
    22     4     5    1
    23     5     6    1
    24    12    13   ar
    25    13    14   ar
    26    14     9   ar
    27     6     1    1
    28    26    20   ar
@<TRIPOS>MOLECULE
*****
 26 28 0 0 0
SMALL
GASTEIGER

@<TRIPOS>ATOM
      1 N         138.6304  139.8361  162.6980 N.3     1  UNL1       -0.2700
      2 C         137.5828  140.7453  163.2690 C.3     1  UNL1        0.0897
      3 C         137.7273  142.2324  163.1365 C.3     1  UNL1        0.0897
      4 N         138.9194  142.8104  162.4329 N.3     1  UNL1       -0.2700
      5 C         139.9670  141.9012  161.8619 C.3     1  UNL1        0.0897
      6 C         139.8224  140.4141  161.9945 C.3     1  UNL1        0.0897
      7 C         138.4859  138.3490  162.8305 C.3     1  UNL1        0.0769
      8 C         139.0402  137.6459  164.0339 C.3     1  UNL1        0.0437
      9 C         139.3525  139.8171  167.9631 C.ar    1  UNL1        0.2900
     10 C         138.0954  139.0777  167.6126 C.ar    1  UNL1        0.0749
     11 C         137.9913  138.3540  166.3029 C.ar    1  UNL1        0.0021
     12 C         139.1443  138.3696  165.3436 C.ar    1  UNL1       -0.0204
     13 C         140.4015  139.1089  165.6941 C.ar    1  UNL1        0.0021
     14 C         140.5056  139.8327  167.0038 C.ar    1  UNL1        0.0749
     15 O         140.0014  141.9376  169.3166 O.2     1  UNL1        0.0415
     16 N         139.4566  140.5408  169.2728 N.pl3   1  UNL1        0.0809
     17 O         139.0160  139.8677  170.5387 O.co2   1  UNL1       -0.5760
     18 C         139.0639  144.2975  162.3004 C.3     1  UNL1        0.0769
     19 C         139.7659  145.0811  163.3697 C.3     1  UNL1        0.0437
     20 C         141.1111  144.6377  163.8635 C.ar    1  UNL1       -0.0206
     21 C         141.2156  143.5012  164.8368 C.ar    1  UNL1       -0.0019
     22 C         142.5608  143.0579  165.3307 C.ar    1  UNL1        0.0293
     23 C         143.8016  143.7511  164.8512 C.ar    1  UNL1        0.1401
     24 F         145.1468  143.3077  165.3450 F       1  UNL1       -0.2042
     25 C         143.6972  144.8877  163.8779 C.ar    1  UNL1        0.0293
     26 C         142.3520  145.3310  163.3840 C.ar    1  UNL1       -0.0019
@<TRIPOS>UNITY_ATOM_ATTR
16 1
charge 1
17 1
charge -1
@<TRIPOS>BOND
     1    15    16    2
     2    16    17    1
     3    16     9    1
     4     9    10   ar
     5    10    11   ar
     6    11    12   ar
     7    12     8    1
     8     8     7    1
     9     7     1    1
    10     1     2    1
    11     2     3    1
    12     3     4    1
    13     4    18    1
    14    18    19    1
    15    19    20    1
    16    20    21   ar
    17    21    22   ar
    18    22    23   ar
    19    23    24    1
    20    23    25   ar
    21    25    26   ar
    22     4     5    1
    23     5     6    1
    24    12    13   ar
    25    13    14   ar
    26    14     9   ar
    27     6     1    1
    28    26    20   ar
@<TRIPOS>MOLECULE
*****
 26 28 0 0 0
SMALL
GASTEIGER

@<TRIPOS>ATOM
      1 N         138.1472  140.2029  162.0124 N.3     1  UNL1       -0.2700
      2 C         139.1170  140.9550  161.1498 C.3     1  UNL1        0.0897
      3 C         139.3695  142.4123  161.4000 C.3     1  UNL1        0.0897
      4 N         138.6521  143.1175  162.5128 N.3     1  UNL1       -0.2700
      5 C         137.6824  142.3654  163.3753 C.3     1  UNL1        0.0897
      6 C         137.4299  140.9081  163.1251 C.3     1  UNL1        0.0897
      7 C         137.8948  138.7456  161.7622 C.3     1  UNL1        0.0769
      8 C         138.4883  137.7141  162.6752 C.3     1  UNL1        0.0437
      9 C         142.4421  138.4904  164.6788 C.ar    1  UNL1        0.2900
     10 C         142.4031  137.9894  163.2655 C.ar    1  UNL1        0.0749
     11 C         141.0851  137.7307  162.5976 C.ar    1  UNL1        0.0021
     12 C         139.8062  137.9728  163.3431 C.ar    1  UNL1       -0.0204
     13 C         139.8453  138.4737  164.7564 C.ar    1  UNL1        0.0021
     14 C         141.1632  138.7325  165.4243 C.ar    1  UNL1        0.0749
     15 O         144.7537  139.6759  164.7113 O.2     1  UNL1        0.0415
     16 N         143.7601  138.7491  165.3467 N.pl3   1  UNL1        0.0809
     17 O         144.0844  138.0811  166.6500 O.co2   1  UNL1       -0.5760
     18 C         138.9045  144.5748  162.7630 C.3     1  UNL1        0.0769
     19 C         139.6407  145.0075  163.9962 C.3     1  UNL1        0.0437
     20 C         141.0343  144.5138  164.2498 C.ar    1  UNL1       -0.0206
     21 C         142.2108  145.3015  163.7545 C.ar    1  UNL1       -0.0019
     22 C         143.6043  144.8077  164.0081 C.ar    1  UNL1        0.0293
     23 C         143.8213  143.5263  164.7569 C.ar    1  UNL1        0.1401
     24 F         145.2149  143.0326  165.0105 F       1  UNL1       -0.2042
     25 C         142.6448  142.7385  165.2522 C.ar    1  UNL1        0.0293
     26 C         141.2513  143.2322  164.9987 C.ar    1  UNL1       -0.0019
@<TRIPOS>UNITY_ATOM_ATTR
16 1
charge 1
17 1
charge -1
@<TRIPOS>BOND
     1    15    16    2
     2    16    17    1
     3    16     9    1
     4     9    10   ar
     5    10    11   ar
     6    11    12   ar
     7    12     8    1
     8     8     7    1
     9     7     1    1
    10     1     2    1
    11     2     3    1
    12     3     4    1
    13     4    18    1
    14    18    19    1
    15    19    20    1
    16    20    21   ar
    17    21    22   ar
    18    22    23   ar
    19    23    24    1
    20    23    25   ar
    21    25    26   ar
    22     4     5    1
    23     5     6    1
    24    12    13   ar
    25    13    14   ar
    26    14     9   ar
    27     6     1    1
    28    26    20   ar
@<TRIPOS>MOLECULE
*****
 26 28 0 0 0
SMALL
GASTEIGER

@<TRIPOS>ATOM
      1 N         144.5129  140.8983  163.1779 N.3     1  UNL1       -0.2700
      2 C         143.9064  141.1864  161.8365 C.3     1  UNL1        0.0897
      3 C         142.9582  140.2039  161.2155 C.3     1  UNL1        0.0897
      4 N         142.6163  138.9334  161.9360 N.3     1  UNL1       -0.2700
      5 C         143.2228  138.6454  163.2774 C.3     1  UNL1        0.0897
      6 C         144.1711  139.6279  163.8983 C.3     1  UNL1        0.0897
      7 C         145.4612  141.8808  163.7988 C.3     1  UNL1        0.0769
      8 C         144.9513  142.9047  164.7691 C.3     1  UNL1        0.0437
      9 C         140.6965  144.3436  164.4933 C.ar    1  UNL1        0.2900
     10 C         141.7835  145.0717  163.7596 C.ar    1  UNL1        0.0749
     11 C         143.2018  144.5920  163.8515 C.ar    1  UNL1        0.0021
     12 C         143.5331  143.3844  164.6771 C.ar    1  UNL1       -0.0204
     13 C         142.4461  142.6563  165.4108 C.ar    1  UNL1        0.0021
     14 C         141.0278  143.1359  165.3189 C.ar    1  UNL1        0.0749
     15 O         138.5223  145.1726  165.6489 O.2     1  UNL1        0.0415
     16 N         139.2782  144.8232  164.4013 N.pl3   1  UNL1        0.0809
     17 O         138.6159  144.9535  163.0618 O.co2   1  UNL1       -0.5760
     18 C         141.6680  137.9509  161.3151 C.3     1  UNL1        0.0769
     19 C         140.1875  138.1676  161.4216 C.3     1  UNL1        0.0437
     20 C         139.5635  138.4388  162.7584 C.ar    1  UNL1       -0.0206
     21 C         138.9422  139.7750  163.0388 C.ar    1  UNL1       -0.0019
     22 C         138.3182  140.0462  164.3756 C.ar    1  UNL1        0.0293
     23 C         138.3154  138.9814  165.4320 C.ar    1  UNL1        0.1401
     24 F         137.6914  139.2527  166.7688 F       1  UNL1       -0.2042
     25 C         138.9368  137.6452  165.1516 C.ar    1  UNL1        0.0293
     26 C         139.5608  137.3739  163.8148 C.ar    1  UNL1       -0.0019
@<TRIPOS>UNITY_ATOM_ATTR
16 1
charge 1
17 1
charge -1
@<TRIPOS>BOND
     1    15    16    2
     2    16    17    1
     3    16     9    1
     4     9    10   ar
     5    10    11   ar
     6    11    12   ar
     7    12     8    1
     8     8     7    1
     9     7     1    1
    10     1     2    1
    11     2     3    1
    12     3     4    1
    13     4    18    1
    14    18    19    1
    15    19    20    1
    16    20    21   ar
    17    21    22   ar
    18    22    23   ar
    19    23    24    1
    20    23    25   ar
    21    25    26   ar
    22     4     5    1
    23     5     6    1
    24    12    13   ar
    25    13    14   ar
    26    14     9   ar
    27     6     1    1
    28    26    20   ar
@<TRIPOS>MOLECULE
*****
 26 28 0 0 0
SMALL
GASTEIGER

@<TRIPOS>ATOM
      1 N         141.8599  137.9370  164.2843 N.3     1  UNL1       -0.2700
      2 C         142.2298  138.4065  162.9085 C.3     1  UNL1        0.0897
      3 C         143.3894  139.3394  162.7210 C.3     1  UNL1        0.0897
      4 N         144.1789  139.8028  163.9092 N.3     1  UNL1       -0.2700
      5 C         143.8090  139.3333  165.2849 C.3     1  UNL1        0.0897
      6 C         142.6494  138.4004  165.4725 C.3     1  UNL1        0.0897
      7 C         140.7003  137.0041  164.4719 C.3     1  UNL1        0.0769
      8 C         139.3587  137.5454  164.8679 C.3     1  UNL1        0.0437
      9 C         138.2609  141.7928  163.8656 C.ar    1  UNL1        0.2900
     10 C         138.7972  141.4578  165.2258 C.ar    1  UNL1        0.0749
     11 C         139.1632  140.0420  165.5599 C.ar    1  UNL1        0.0021
     12 C         138.9927  138.9612  164.5338 C.ar    1  UNL1       -0.0204
     13 C         138.4564  139.2963  163.1737 C.ar    1  UNL1        0.0021
     14 C         138.0905  140.7121  162.8396 C.ar    1  UNL1        0.0749
     15 O         137.7716  143.6331  162.0982 O.2     1  UNL1        0.0415
     16 N         137.8950  143.2086  163.5315 N.pl3   1  UNL1        0.0809
     17 O         137.6525  144.2000  164.6308 O.co2   1  UNL1       -0.5760
     18 C         145.3385  140.7357  163.7217 C.3     1  UNL1        0.0769
     19 C         145.2604  142.1423  164.2371 C.3     1  UNL1        0.0437
     20 C         144.0260  142.9606  163.9996 C.ar    1  UNL1       -0.0206
     21 C         143.9435  143.8644  162.8054 C.ar    1  UNL1       -0.0019
     22 C         142.7090  144.6827  162.5679 C.ar    1  UNL1        0.0293
     23 C         141.5570  144.5973  163.5247 C.ar    1  UNL1        0.1401
     24 F         140.3225  145.4156  163.2873 F       1  UNL1       -0.2042
     25 C         141.6395  143.6935  164.7191 C.ar    1  UNL1        0.0293
     26 C         142.8739  142.8751  164.9566 C.ar    1  UNL1       -0.0019
@<TRIPOS>UNITY_ATOM_ATTR
16 1
charge 1
17 1
charge -1
@<TRIPOS>BOND
     1    15    16    2
     2    16    17    1
     3    16     9    1
     4     9    10   ar
     5    10    11   ar
     6    11    12   ar
     7    12     8    1
     8     8     7    1
     9     7     1    1
    10     1     2    1
    11     2     3    1
    12     3     4    1
    13     4    18    1
    14    18    19    1
    15    19    20    1
    16    20    21   ar
    17    21    22   ar
    18    22    23   ar
    19    23    24    1
    20    23    25   ar
    21    25    26   ar
    22     4     5    1
    23     5     6    1
    24    12    13   ar
    25    13    14   ar
    26    14     9   ar
    27     6     1    1
    28    26    20   ar
@<TRIPOS>MOLECULE
*****
 26 28 0 0 0
SMALL
GASTEIGER

@<TRIPOS>ATOM
      1 N         144.2394  139.9815  163.9152 N.3     1  UNL1       -0.2700
      2 C         143.5310  139.4949  162.6858 C.3     1  UNL1        0.0897
      3 C         142.4138  138.5014  162.8077 C.3     1  UNL1        0.0897
      4 N         142.0050  137.9945  164.1591 N.3     1  UNL1       -0.2700
      5 C         142.7134  138.4811  165.3884 C.3     1  UNL1        0.0897
      6 C         143.8306  139.4746  165.2665 C.3     1  UNL1        0.0897
      7 C         145.3566  140.9750  163.7933 C.3     1  UNL1        0.0769
      8 C         145.1098  142.4225  164.0995 C.3     1  UNL1        0.0437
      9 C         140.9975  144.1676  163.5576 C.ar    1  UNL1        0.2900
     10 C         141.9887  144.2200  162.4330 C.ar    1  UNL1        0.0749
     11 C         143.3594  143.6383  162.6137 C.ar    1  UNL1        0.0021
     12 C         143.7390  143.0042  163.9189 C.ar    1  UNL1       -0.0204
     13 C         142.7479  142.9517  165.0435 C.ar    1  UNL1        0.0021
     14 C         141.3771  143.5334  164.8629 C.ar    1  UNL1        0.0749
     15 O         138.7346  144.9501  164.5660 O.2     1  UNL1        0.0415
     16 N         139.6267  144.7493  163.3770 N.pl3   1  UNL1        0.0809
     17 O         139.1481  145.1302  162.0074 O.co2   1  UNL1       -0.5760
     18 C         140.8878  137.0010  164.2810 C.3     1  UNL1        0.0769
     19 C         139.5481  137.4382  164.7951 C.3     1  UNL1        0.0437
     20 C         138.9584  138.7400  164.3395 C.ar    1  UNL1       -0.0206
     21 C         138.4231  138.8737  162.9447 C.ar    1  UNL1       -0.0019
     22 C         137.8334  140.1755  162.4892 C.ar    1  UNL1        0.0293
     23 C         137.7789  141.3437  163.4285 C.ar    1  UNL1        0.1401
     24 F         137.1892  142.6455  162.9729 F       1  UNL1       -0.2042
     25 C         138.3142  141.2101  164.8234 C.ar    1  UNL1        0.0293
     26 C         138.9039  139.9083  165.2789 C.ar    1  UNL1       -0.0019
@<TRIPOS>UNITY_ATOM_ATTR
16 1
charge 1
17 1
charge -1
@<TRIPOS>BOND
     1    15    16    2
     2    16    17    1
     3    16     9    1
     4     9    10   ar
     5    10    11   ar
     6    11    12   ar
     7    12     8    1
     8     8     7    1
     9     7     1    1
    10     1     2    1
    11     2     3    1
    12     3     4    1
    13     4    18    1
    14    18    19    1
    15    19    20    1
    16    20    21   ar
    17    21    22   ar
    18    22    23   ar
    19    23    24    1
    20    23    25   ar
    21    25    26   ar
    22     4     5    1
    23     5     6    1
    24    12    13   ar
    25    13    14   ar
    26    14     9   ar
    27     6     1    1
    28    26    20   ar
@<TRIPOS>MOLECULE
*****
 26 28 0 0 0
SMALL
GASTEIGER

@<TRIPOS>ATOM
      1 N         142.4569  139.6523  163.9906 N.3     1  UNL1       -0.2700
      2 C         141.1090  138.9941  163.9859 C.3     1  UNL1        0.0897
      3 C         140.0803  139.3988  162.9720 C.3     1  UNL1        0.0897
      4 N         140.3996  140.4616  161.9627 N.3     1  UNL1       -0.2700
      5 C         141.7475  141.1197  161.9674 C.3     1  UNL1        0.0897
      6 C         142.7761  140.7150  162.9813 C.3     1  UNL1        0.0897
      7 C         143.4856  139.2476  165.0045 C.3     1  UNL1        0.0769
      8 C         143.0546  138.6994  166.3325 C.3     1  UNL1        0.0437
      9 C         142.2496  141.4941  169.7664 C.ar    1  UNL1        0.2900
     10 C         142.3921  142.0368  168.3753 C.ar    1  UNL1        0.0749
     11 C         142.6605  141.1052  167.2307 C.ar    1  UNL1        0.0021
     12 C         142.7863  139.6310  167.4771 C.ar    1  UNL1       -0.0204
     13 C         142.6437  139.0883  168.8682 C.ar    1  UNL1        0.0021
     14 C         142.3753  140.0199  170.0128 C.ar    1  UNL1        0.0749
     15 O         142.8498  143.6313  171.1163 O.2     1  UNL1        0.0415
     16 N         141.9812  142.4257  170.9110 N.pl3   1  UNL1        0.0809
     17 O         140.8443  142.1518  171.8503 O.co2   1  UNL1       -0.5760
     18 C         139.3709  140.8662  160.9488 C.3     1  UNL1        0.0769
     19 C         138.8355  142.2675  160.9416 C.3     1  UNL1        0.0437
     20 C         138.7442  143.0420  162.2230 C.ar    1  UNL1       -0.0206
     21 C         137.7332  142.6566  163.2619 C.ar    1  UNL1       -0.0019
     22 C         137.6419  143.4311  164.5432 C.ar    1  UNL1        0.0293
     23 C         138.5615  144.5910  164.7856 C.ar    1  UNL1        0.1401
     24 F         138.4702  145.3655  166.0670 F       1  UNL1       -0.2042
     25 C         139.5726  144.9765  163.7467 C.ar    1  UNL1        0.0293
     26 C         139.6639  144.2020  162.4654 C.ar    1  UNL1       -0.0019
@<TRIPOS>UNITY_ATOM_ATTR
16 1
charge 1
17 1
charge -1
@<TRIPOS>BOND
     1    15    16    2
     2    16    17    1
     3    16     9    1
     4     9    10   ar
     5    10    11   ar
     6    11    12   ar
     7    12     8    1
     8     8     7    1
     9     7     1    1
    10     1     2    1
    11     2     3    1
    12     3     4    1
    13     4    18    1
    14    18    19    1
    15    19    20    1
    16    20    21   ar
    17    21    22   ar
    18    22    23   ar
    19    23    24    1
    20    23    25   ar
    21    25    26   ar
    22     4     5    1
    23     5     6    1
    24    12    13   ar
    25    13    14   ar
    26    14     9   ar
    27     6     1    1
    28    26    20   ar
@<TRIPOS>MOLECULE
*****
 26 28 0 0 0
SMALL
GASTEIGER

@<TRIPOS>ATOM
      1 N         140.0720  137.8886  164.4799 N.3     1  UNL1       -0.2700
      2 C         141.3961  138.1941  165.1151 C.3     1  UNL1        0.0897
      3 C         142.6250  138.3196  164.2641 C.3     1  UNL1        0.0897
      4 N         142.5297  138.1396  162.7780 N.3     1  UNL1       -0.2700
      5 C         141.2057  137.8341  162.1428 C.3     1  UNL1        0.0897
      6 C         139.9768  137.7086  162.9938 C.3     1  UNL1        0.0897
      7 C         138.8431  137.7631  165.3308 C.3     1  UNL1        0.0769
      8 C         138.1825  138.9927  165.8801 C.3     1  UNL1        0.0437
      9 C         138.9910  143.0063  164.0128 C.ar    1  UNL1        0.2900
     10 C         139.6873  142.6160  165.2827 C.ar    1  UNL1        0.0749
     11 C         139.4178  141.2781  165.9052 C.ar    1  UNL1        0.0021
     12 C         138.4520  140.3305  165.2577 C.ar    1  UNL1       -0.0204
     13 C         137.7557  140.7209  163.9878 C.ar    1  UNL1        0.0021
     14 C         138.0252  142.0587  163.3653 C.ar    1  UNL1        0.0749
     15 O         138.3704  144.8556  162.2967 O.2     1  UNL1        0.0415
     16 N         139.2605  144.3442  163.3904 N.pl3   1  UNL1        0.0809
     17 O         140.4201  145.1707  163.8616 O.co2   1  UNL1       -0.5760
     18 C         143.7586  138.2650  161.9270 C.3     1  UNL1        0.0769
     19 C         144.1513  139.6009  161.3690 C.3     1  UNL1        0.0437
     20 C         144.1819  140.8066  162.2609 C.ar    1  UNL1       -0.0206
     21 C         145.2976  140.9812  163.2481 C.ar    1  UNL1       -0.0019
     22 C         145.3282  142.1868  164.1399 C.ar    1  UNL1        0.0293
     23 C         144.2430  143.2180  164.0446 C.ar    1  UNL1        0.1401
     24 F         144.2736  144.4236  164.9364 F       1  UNL1       -0.2042
     25 C         143.1272  143.0435  163.0573 C.ar    1  UNL1        0.0293
     26 C         143.0966  141.8378  162.1655 C.ar    1  UNL1       -0.0019
@<TRIPOS>UNITY_ATOM_ATTR
16 1
charge 1
17 1
charge -1
@<TRIPOS>BOND
     1    15    16    2
     2    16    17    1
     3    16     9    1
     4     9    10   ar
     5    10    11   ar
     6    11    12   ar
     7    12     8    1
     8     8     7    1
     9     7     1    1
    10     1     2    1
    11     2     3    1
    12     3     4    1
    13     4    18    1
    14    18    19    1
    15    19    20    1
    16    20    21   ar
    17    21    22   ar
    18    22    23   ar
    19    23    24    1
    20    23    25   ar
    21    25    26   ar
    22     4     5    1
    23     5     6    1
    24    12    13   ar
    25    13    14   ar
    26    14     9   ar
    27     6     1    1
    28    26    20   ar
@<TRIPOS>MOLECULE
*****
 26 28 0 0 0
SMALL
GASTEIGER

@<TRIPOS>ATOM
      1 N         141.8231  139.8433  161.3068 N.3     1  UNL1       -0.2700
      2 C         141.6398  141.1188  160.5389 C.3     1  UNL1        0.0897
      3 C         142.3541  142.3645  160.9725 C.3     1  UNL1        0.0897
      4 N         143.2517  142.3347  162.1740 N.3     1  UNL1       -0.2700
      5 C         143.4350  141.0592  162.9418 C.3     1  UNL1        0.0897
      6 C         142.7206  139.8135  162.5082 C.3     1  UNL1        0.0897
      7 C         141.1087  138.5976  160.8732 C.3     1  UNL1        0.0769
      8 C         139.6759  138.3813  161.2606 C.3     1  UNL1        0.0437
      9 C         138.4558  138.6067  165.5862 C.ar    1  UNL1        0.2900
     10 C         139.2067  137.4109  165.0800 C.ar    1  UNL1        0.0749
     11 C         139.6133  137.3358  163.6381 C.ar    1  UNL1        0.0021
     12 C         139.2692  138.4565  162.7024 C.ar    1  UNL1       -0.0204
     13 C         138.5184  139.6523  163.2086 C.ar    1  UNL1        0.0021
     14 C         138.1117  139.7274  164.6505 C.ar    1  UNL1        0.0749
     15 O         138.8545  139.5007  167.9928 O.2     1  UNL1        0.0415
     16 N         138.0492  138.6818  167.0280 N.pl3   1  UNL1        0.0809
     17 O         136.8372  137.9379  167.5052 O.co2   1  UNL1       -0.5760
     18 C         143.9661  143.5803  162.6076 C.3     1  UNL1        0.0769
     19 C         143.3920  144.4322  163.7008 C.3     1  UNL1        0.0437
     20 C         141.9269  144.3623  164.0150 C.ar    1  UNL1       -0.0206
     21 C         141.4397  143.4826  165.1279 C.ar    1  UNL1       -0.0019
     22 C         139.9746  143.4128  165.4421 C.ar    1  UNL1        0.0293
     23 C         138.9968  144.2225  164.6433 C.ar    1  UNL1        0.1401
     24 F         137.5317  144.1526  164.9575 F       1  UNL1       -0.2042
     25 C         139.4840  145.1022  163.5303 C.ar    1  UNL1        0.0293
     26 C         140.9491  145.1721  163.2161 C.ar    1  UNL1       -0.0019
@<TRIPOS>UNITY_ATOM_ATTR
16 1
charge 1
17 1
charge -1
@<TRIPOS>BOND
     1    15    16    2
     2    16    17    1
     3    16     9    1
     4     9    10   ar
     5    10    11   ar
     6    11    12   ar
     7    12     8    1
     8     8     7    1
     9     7     1    1
    10     1     2    1
    11     2     3    1
    12     3     4    1
    13     4    18    1
    14    18    19    1
    15    19    20    1
    16    20    21   ar
    17    21    22   ar
    18    22    23   ar
    19    23    24    1
    20    23    25   ar
    21    25    26   ar
    22     4     5    1
    23     5     6    1
    24    12    13   ar
    25    13    14   ar
    26    14     9   ar
    27     6     1    1
    28    26    20   ar
