@<TRIPOS>MOLECULE
*****
 37 41 0 0 0
SMALL
GASTEIGER

@<TRIPOS>ATOM
      1 N         140.7101  142.9286  163.3027 N.ar    1  UNL1       -0.3150
      2 C         141.3115  143.2680  164.6343 C.ar    1  UNL1        0.0771
      3 C         140.7974  142.2810  165.6401 C.ar    1  UNL1        0.0251
      4 C         139.8783  141.3317  164.9301 C.ar    1  UNL1        0.0669
      5 C         139.0835  140.1546  165.4124 C.ar    1  UNL1        0.1300
      6 N         139.1375  139.7543  166.8570 N.pl3   1  UNL1       -0.3425
      7 N         138.2348  139.3777  164.4501 N.ar    1  UNL1       -0.2094
      8 C         138.1809  139.7779  163.0055 C.ar    1  UNL1        0.2014
      9 N         138.9756  140.9551  162.5232 N.ar    1  UNL1       -0.2065
     10 C         139.8243  141.7320  163.4855 C.ar    1  UNL1        0.1482
     11 H         139.6945  140.2642  167.4886 H       1  UNL1        0.1437
     12 H         138.6159  138.9817  167.1735 H       1  UNL1        0.1437
     13 C         141.1419  142.2490  167.0996 C.ar    1  UNL1        0.0304
     14 C         140.3307  143.0438  168.0794 C.ar    1  UNL1        0.0172
     15 C         140.6752  143.0117  169.5390 C.ar    1  UNL1        0.0524
     16 N         139.8639  143.8066  170.5187 N.pl3   1  UNL1       -0.3563
     17 C         141.8310  142.1848  170.0188 C.ar    1  UNL1        0.0727
     18 CL        142.1755  142.1527  171.4783 Cl      1  UNL1       -0.0809
     19 C         142.6423  141.3899  169.0390 C.ar    1  UNL1        0.0423
     20 C         142.2978  141.4220  167.5794 C.ar    1  UNL1        0.1410
     21 F         143.1091  140.6271  166.5997 F       1  UNL1       -0.2041
     22 H         139.1053  144.3494  170.2038 H       1  UNL1        0.1424
     23 H         140.0900  143.7856  171.4767 H       1  UNL1        0.1424
     24 C         141.4357  145.1165  159.4379 C.3     1  UNL1        0.0600
     25 C         142.2265  143.8838  159.7617 C.3     1  UNL1        0.0200
     26 C         141.9846  143.1545  161.0500 C.3     1  UNL1        0.0225
     27 C         140.9520  143.6579  162.0144 C.3     1  UNL1        0.0699
     28 C         140.1612  144.8908  161.6905 C.3     1  UNL1        0.0225
     29 C         140.4031  145.6200  160.4023 C.3     1  UNL1        0.0200
     30 C         141.0491  144.0912  161.3211 C.3     1  UNL1        0.0225
     31 C         141.2678  144.7507  160.1561 C.3     1  UNL1        0.0200
     32 C         140.7875  145.5968  156.9682 C.2     1  UNL1        0.4017
     33 O         139.6555  144.6185  157.0751 O.2     1  UNL1       -0.2264
     34 N         141.6776  145.8458  158.1496 N.am    1  UNL1       -0.2738
     35 H         142.4206  146.4879  158.0794 H       1  UNL1        0.1526
     36 C         139.9656  147.2181  155.1119 C.3     1  UNL1        0.2573
     37 O         141.0295  146.3262  155.6800 O.3     1  UNL1       -0.4306
@<TRIPOS>BOND
     1    36    37    1
     2    37    32    1
     3    32    33    2
     4    32    34   am
     5    34    24    1
     6    24    25    1
     7    25    26    1
     8    26    27    1
     9    27     1    1
    10     1     2   ar
    11     2     3   ar
    12     3    13    1
    13    13    14   ar
    14    14    15   ar
    15    15    16    1
    16    15    17   ar
    17    17    18    1
    18    17    19   ar
    19    19    20   ar
    20    20    21    1
    21     3     4   ar
    22     4     5   ar
    23     5     6    1
    24     5     7   ar
    25     7     8   ar
    26     8     9   ar
    27     9    10   ar
    28    27    28    1
    29    28    29    1
    30    27    30    1
    31    30    31    1
    32    29    24    1
    33    31    24    1
    34    10     1   ar
    35    20    13   ar
    36    10     4   ar
    37    34    35    1
    38    16    22    1
    39    16    23    1
    40     6    11    1
    41     6    12    1
@<TRIPOS>MOLECULE
*****
 37 41 0 0 0
SMALL
GASTEIGER

@<TRIPOS>ATOM
      1 N         141.3855  142.3964  163.1822 N.ar    1  UNL1       -0.3150
      2 C         140.9174  142.6031  164.5922 C.ar    1  UNL1        0.0771
      3 C         141.5536  141.5504  165.4507 C.ar    1  UNL1        0.0251
      4 C         142.4149  140.6932  164.5714 C.ar    1  UNL1        0.0669
      5 C         143.2804  139.5041  164.8662 C.ar    1  UNL1        0.1300
      6 N         143.3843  138.9812  166.2683 N.pl3   1  UNL1       -0.3425
      7 N         144.0419  138.8378  163.7589 N.ar    1  UNL1       -0.2094
      8 C         143.9380  139.3607  162.3568 C.ar    1  UNL1        0.2014
      9 N         143.0726  140.5498  162.0620 N.ar    1  UNL1       -0.2065
     10 C         142.3110  141.2160  163.1693 C.ar    1  UNL1        0.1482
     11 H         142.8845  139.4185  166.9950 H       1  UNL1        0.1437
     12 H         143.9524  138.2008  166.4617 H       1  UNL1        0.1437
     13 C         141.3622  141.3842  166.9292 C.ar    1  UNL1        0.0304
     14 C         140.1571  140.6606  167.4527 C.ar    1  UNL1        0.0172
     15 C         139.9657  140.4944  168.9312 C.ar    1  UNL1        0.0524
     16 N         138.7605  139.7708  169.4547 N.pl3   1  UNL1       -0.3563
     17 C         140.9794  141.0517  169.8860 C.ar    1  UNL1        0.0727
     18 CL        140.7879  140.8854  171.3645 Cl      1  UNL1       -0.0809
     19 C         142.1845  141.7753  169.3625 C.ar    1  UNL1        0.0423
     20 C         142.3759  141.9415  167.8841 C.ar    1  UNL1        0.1410
     21 F         143.5811  142.6651  167.3605 F       1  UNL1       -0.2041
     22 H         138.0952  139.4050  168.8280 H       1  UNL1        0.1424
     23 H         138.6349  139.6617  170.4250 H       1  UNL1        0.1424
     24 C         140.2181  144.8811  159.6165 C.3     1  UNL1        0.0600
     25 C         141.0393  145.4865  160.7161 C.3     1  UNL1        0.0200
     26 C         141.4284  144.6582  161.9046 C.3     1  UNL1        0.0225
     27 C         140.9964  143.2246  161.9936 C.3     1  UNL1        0.0699
     28 C         140.1751  142.6192  160.8940 C.3     1  UNL1        0.0225
     29 C         139.7860  143.4475  159.7054 C.3     1  UNL1        0.0200
     30 C         140.7588  143.6388  161.3228 C.3     1  UNL1        0.0225
     31 C         140.4070  144.3878  160.2481 C.3     1  UNL1        0.0200
     32 C         140.7992  145.9064  157.3011 C.2     1  UNL1        0.4017
     33 O         142.1585  145.2752  157.3628 O.2     1  UNL1       -0.2264
     34 N         139.8290  145.7094  158.4280 N.am    1  UNL1       -0.2738
     35 H         138.9369  146.1237  158.3875 H       1  UNL1        0.1526
     36 C         138.9665  147.0576  155.8639 C.3     1  UNL1        0.2573
     37 O         140.4100  146.7347  156.1126 O.3     1  UNL1       -0.4306
@<TRIPOS>BOND
     1    36    37    1
     2    37    32    1
     3    32    33    2
     4    32    34   am
     5    34    24    1
     6    24    25    1
     7    25    26    1
     8    26    27    1
     9    27     1    1
    10     1     2   ar
    11     2     3   ar
    12     3    13    1
    13    13    14   ar
    14    14    15   ar
    15    15    16    1
    16    15    17   ar
    17    17    18    1
    18    17    19   ar
    19    19    20   ar
    20    20    21    1
    21     3     4   ar
    22     4     5   ar
    23     5     6    1
    24     5     7   ar
    25     7     8   ar
    26     8     9   ar
    27     9    10   ar
    28    27    28    1
    29    28    29    1
    30    27    30    1
    31    30    31    1
    32    29    24    1
    33    31    24    1
    34    10     1   ar
    35    20    13   ar
    36    10     4   ar
    37    34    35    1
    38    16    22    1
    39    16    23    1
    40     6    11    1
    41     6    12    1
@<TRIPOS>MOLECULE
*****
 37 41 0 0 0
SMALL
GASTEIGER

@<TRIPOS>ATOM
      1 N         142.6089  142.6354  162.5487 N.ar    1  UNL1       -0.3150
      2 C         143.4934  141.8721  161.6080 C.ar    1  UNL1        0.0771
      3 C         143.2944  142.4293  160.2296 C.ar    1  UNL1        0.0251
      4 C         142.2869  143.5370  160.3184 C.ar    1  UNL1        0.0669
      5 C         141.7006  144.4462  159.2794 C.ar    1  UNL1        0.1300
      6 N         142.1243  144.3187  157.8461 N.pl3   1  UNL1       -0.3425
      7 N         140.6906  145.4827  159.6736 N.ar    1  UNL1       -0.2094
      8 C         140.2669  145.6101  161.1069 C.ar    1  UNL1        0.2014
      9 N         140.8533  144.7010  162.1459 N.ar    1  UNL1       -0.2065
     10 C         141.8633  143.6645  161.7517 C.ar    1  UNL1        0.1482
     11 H         142.7872  143.6384  157.5874 H       1  UNL1        0.1437
     12 H         141.7394  144.9154  157.1641 H       1  UNL1        0.1437
     13 C         143.9821  141.9610  158.9815 C.ar    1  UNL1        0.0304
     14 C         145.1692  142.7102  158.4531 C.ar    1  UNL1        0.0172
     15 C         145.8569  142.2419  157.2050 C.ar    1  UNL1        0.0524
     16 N         147.0440  142.9913  156.6766 N.pl3   1  UNL1       -0.3563
     17 C         145.3575  141.0243  156.4853 C.ar    1  UNL1        0.0727
     18 CL        146.0453  140.5560  155.2372 Cl      1  UNL1       -0.0809
     19 C         144.1704  140.2750  157.0137 C.ar    1  UNL1        0.0423
     20 C         143.4827  140.7433  158.2618 C.ar    1  UNL1        0.1410
     21 F         142.2956  139.9939  158.7902 F       1  UNL1       -0.2041
     22 H         147.3718  143.7904  157.1489 H       1  UNL1        0.1424
     23 H         147.4954  142.6839  155.8574 H       1  UNL1        0.1424
     24 C         142.2544  141.9576  166.9832 C.3     1  UNL1        0.0600
     25 C         143.5099  142.5477  166.4127 C.3     1  UNL1        0.0200
     26 C         143.6280  142.7736  164.9345 C.3     1  UNL1        0.0225
     27 C         142.4908  142.4095  164.0268 C.3     1  UNL1        0.0699
     28 C         141.2352  141.8194  164.5974 C.3     1  UNL1        0.0225
     29 C         141.1170  141.5935  166.0756 C.3     1  UNL1        0.0200
     30 C         142.3795  142.2672  164.8302 C.3     1  UNL1        0.0225
     31 C         142.2727  142.0629  166.1668 C.3     1  UNL1        0.0200
     32 C         142.5367  140.4127  169.0529 C.2     1  UNL1        0.4017
     33 O         143.0553  139.3196  168.1662 O.2     1  UNL1       -0.2264
     34 N         142.1363  141.7317  168.4614 N.am    1  UNL1       -0.2738
     35 H         141.7959  142.4491  169.0434 H       1  UNL1        0.1526
     36 C         141.6489  141.1560  171.3787 C.3     1  UNL1        0.2573
     37 O         142.4186  140.1868  170.5311 O.3     1  UNL1       -0.4306
@<TRIPOS>BOND
     1    36    37    1
     2    37    32    1
     3    32    33    2
     4    32    34   am
     5    34    24    1
     6    24    25    1
     7    25    26    1
     8    26    27    1
     9    27     1    1
    10     1     2   ar
    11     2     3   ar
    12     3    13    1
    13    13    14   ar
    14    14    15   ar
    15    15    16    1
    16    15    17   ar
    17    17    18    1
    18    17    19   ar
    19    19    20   ar
    20    20    21    1
    21     3     4   ar
    22     4     5   ar
    23     5     6    1
    24     5     7   ar
    25     7     8   ar
    26     8     9   ar
    27     9    10   ar
    28    27    28    1
    29    28    29    1
    30    27    30    1
    31    30    31    1
    32    29    24    1
    33    31    24    1
    34    10     1   ar
    35    20    13   ar
    36    10     4   ar
    37    34    35    1
    38    16    22    1
    39    16    23    1
    40     6    11    1
    41     6    12    1
@<TRIPOS>MOLECULE
*****
 37 41 0 0 0
SMALL
GASTEIGER

@<TRIPOS>ATOM
      1 N         140.6159  141.7506  162.3527 N.ar    1  UNL1       -0.3150
      2 C         141.2137  141.8153  163.7269 C.ar    1  UNL1        0.0771
      3 C         140.7944  140.5835  164.4731 C.ar    1  UNL1        0.0251
      4 C         139.9375  139.7576  163.5601 C.ar    1  UNL1        0.0669
      5 C         139.2434  138.4419  163.7528 C.ar    1  UNL1        0.1300
      6 N         139.3537  137.7205  165.0633 N.pl3   1  UNL1       -0.3425
      7 N         138.4390  137.8475  162.6350 N.ar    1  UNL1       -0.2094
      8 C         138.3287  138.5689  161.3244 C.ar    1  UNL1        0.2014
      9 N         139.0227  139.8846  161.1318 N.ar    1  UNL1       -0.2065
     10 C         139.8271  140.4789  162.2496 C.ar    1  UNL1        0.1482
     11 H         139.8817  138.1107  165.7970 H       1  UNL1        0.1437
     12 H         138.8982  136.8570  165.1898 H       1  UNL1        0.1437
     13 C         141.1666  140.2382  165.8846 C.ar    1  UNL1        0.0304
     14 C         140.2484  140.6029  167.0131 C.ar    1  UNL1        0.0172
     15 C         140.6206  140.2576  168.4245 C.ar    1  UNL1        0.0524
     16 N         139.7023  140.6224  169.5530 N.pl3   1  UNL1       -0.3563
     17 C         141.9113  139.5476  168.7075 C.ar    1  UNL1        0.0727
     18 CL        142.2835  139.2023  170.1189 Cl      1  UNL1       -0.0809
     19 C         142.8297  139.1829  167.5790 C.ar    1  UNL1        0.0423
     20 C         142.4574  139.5282  166.1675 C.ar    1  UNL1        0.1410
     21 F         143.3758  139.1634  165.0390 F       1  UNL1       -0.2041
     22 H         138.8552  141.0884  169.3673 H       1  UNL1        0.1424
     23 H         139.9466  140.3958  170.4794 H       1  UNL1        0.1424
     24 C         141.1030  144.8311  159.1087 C.3     1  UNL1        0.0600
     25 C         141.9412  143.5873  159.0938 C.3     1  UNL1        0.0200
     26 C         141.7788  142.5605  160.1751 C.3     1  UNL1        0.0225
     27 C         140.7783  142.7775  161.2713 C.3     1  UNL1        0.0699
     28 C         139.9401  144.0214  161.2862 C.3     1  UNL1        0.0225
     29 C         140.1025  145.0482  160.2049 C.3     1  UNL1        0.0200
     30 C         140.8315  143.3684  160.7005 C.3     1  UNL1        0.0225
     31 C         140.9783  144.2969  159.7227 C.3     1  UNL1        0.0200
     32 C         140.4776  145.7397  156.7563 C.2     1  UNL1        0.4017
     33 O         139.5274  144.5947  156.5667 O.2     1  UNL1       -0.2264
     34 N         141.2654  145.8580  158.0273 N.am    1  UNL1       -0.2738
     35 H         141.8891  146.6095  158.1518 H       1  UNL1        0.1526
     36 C         139.4826  147.6392  155.2895 C.3     1  UNL1        0.2573
     37 O         140.6401  146.7666  155.6750 O.3     1  UNL1       -0.4306
@<TRIPOS>BOND
     1    36    37    1
     2    37    32    1
     3    32    33    2
     4    32    34   am
     5    34    24    1
     6    24    25    1
     7    25    26    1
     8    26    27    1
     9    27     1    1
    10     1     2   ar
    11     2     3   ar
    12     3    13    1
    13    13    14   ar
    14    14    15   ar
    15    15    16    1
    16    15    17   ar
    17    17    18    1
    18    17    19   ar
    19    19    20   ar
    20    20    21    1
    21     3     4   ar
    22     4     5   ar
    23     5     6    1
    24     5     7   ar
    25     7     8   ar
    26     8     9   ar
    27     9    10   ar
    28    27    28    1
    29    28    29    1
    30    27    30    1
    31    30    31    1
    32    29    24    1
    33    31    24    1
    34    10     1   ar
    35    20    13   ar
    36    10     4   ar
    37    34    35    1
    38    16    22    1
    39    16    23    1
    40     6    11    1
    41     6    12    1
@<TRIPOS>MOLECULE
*****
 37 41 0 0 0
SMALL
GASTEIGER

@<TRIPOS>ATOM
      1 N         142.6312  139.0833  161.3719 N.ar    1  UNL1       -0.3150
      2 C         142.2991  137.9948  160.3949 C.ar    1  UNL1        0.0771
      3 C         142.1983  138.6110  159.0310 C.ar    1  UNL1        0.0251
      4 C         142.4681  140.0804  159.1652 C.ar    1  UNL1        0.0669
      5 C         142.5048  141.1903  158.1569 C.ar    1  UNL1        0.1300
      6 N         142.2373  140.8984  156.7101 N.pl3   1  UNL1       -0.3425
      7 N         142.8090  142.5922  158.5954 N.ar    1  UNL1       -0.2094
      8 C         143.0765  142.8841  160.0422 C.ar    1  UNL1        0.2014
      9 N         143.0398  141.7742  161.0505 N.ar    1  UNL1       -0.2065
     10 C         142.7357  140.3724  160.6120 C.ar    1  UNL1        0.1482
     11 H         142.0376  139.9783  156.4223 H       1  UNL1        0.1437
     12 H         142.2613  141.6269  156.0483 H       1  UNL1        0.1437
     13 C         141.8831  137.8853  157.7567 C.ar    1  UNL1        0.0304
     14 C         142.9859  137.2503  156.9627 C.ar    1  UNL1        0.0172
     15 C         142.6706  136.5245  155.6883 C.ar    1  UNL1        0.0524
     16 N         143.7735  135.8896  154.8943 N.pl3   1  UNL1       -0.3563
     17 C         141.2525  136.4338  155.2080 C.ar    1  UNL1        0.0727
     18 CL        140.9373  135.7080  153.9337 Cl      1  UNL1       -0.0809
     19 C         140.1497  137.0687  156.0020 C.ar    1  UNL1        0.0423
     20 C         140.4649  137.7945  157.2763 C.ar    1  UNL1        0.1410
     21 F         139.3620  138.4295  158.0704 F       1  UNL1       -0.2041
     22 H         144.7042  135.9491  155.2095 H       1  UNL1        0.1424
     23 H         143.5666  135.4132  154.0579 H       1  UNL1        0.1424
     24 C         143.2119  138.5719  165.8049 C.3     1  UNL1        0.0600
     25 C         144.3195  139.1330  164.9632 C.3     1  UNL1        0.0200
     26 C         144.1259  139.3035  163.4856 C.3     1  UNL1        0.0225
     27 C         142.8248  138.9129  162.8496 C.3     1  UNL1        0.0699
     28 C         141.7172  138.3518  163.6914 C.3     1  UNL1        0.0225
     29 C         141.9108  138.1813  165.1690 C.3     1  UNL1        0.0200
     30 C         142.8840  138.8010  163.6632 C.3     1  UNL1        0.0225
     31 C         143.0591  138.6468  164.9993 C.3     1  UNL1        0.0200
     32 C         142.8121  139.3954  168.2364 C.2     1  UNL1        0.4017
     33 O         142.0249  140.5599  167.7125 O.2     1  UNL1       -0.2264
     34 N         143.4056  138.4014  167.2826 N.am    1  UNL1       -0.2738
     35 H         143.9222  137.6372  167.6264 H       1  UNL1        0.1526
     36 C         142.5350  140.2896  170.6599 C.3     1  UNL1        0.2573
     37 O         143.0057  139.2249  169.7141 O.3     1  UNL1       -0.4306
@<TRIPOS>BOND
     1    36    37    1
     2    37    32    1
     3    32    33    2
     4    32    34   am
     5    34    24    1
     6    24    25    1
     7    25    26    1
     8    26    27    1
     9    27     1    1
    10     1     2   ar
    11     2     3   ar
    12     3    13    1
    13    13    14   ar
    14    14    15   ar
    15    15    16    1
    16    15    17   ar
    17    17    18    1
    18    17    19   ar
    19    19    20   ar
    20    20    21    1
    21     3     4   ar
    22     4     5   ar
    23     5     6    1
    24     5     7   ar
    25     7     8   ar
    26     8     9   ar
    27     9    10   ar
    28    27    28    1
    29    28    29    1
    30    27    30    1
    31    30    31    1
    32    29    24    1
    33    31    24    1
    34    10     1   ar
    35    20    13   ar
    36    10     4   ar
    37    34    35    1
    38    16    22    1
    39    16    23    1
    40     6    11    1
    41     6    12    1
@<TRIPOS>MOLECULE
*****
 37 41 0 0 0
SMALL
GASTEIGER

@<TRIPOS>ATOM
      1 N         141.3916  140.7425  162.9117 N.ar    1  UNL1       -0.3150
      2 C         141.6013  140.3070  164.3317 C.ar    1  UNL1        0.0771
      3 C         141.0069  141.3515  165.2294 C.ar    1  UNL1        0.0251
      4 C         140.4298  142.4324  164.3642 C.ar    1  UNL1        0.0669
      5 C         139.7185  143.7108  164.6956 C.ar    1  UNL1        0.1300
      6 N         139.4808  144.0871  166.1280 N.pl3   1  UNL1       -0.3425
      7 N         139.2451  144.6128  163.5946 N.ar    1  UNL1       -0.2094
      8 C         139.4829  144.2364  162.1622 C.ar    1  UNL1        0.2014
      9 N         140.1941  142.9580  161.8308 N.ar    1  UNL1       -0.2065
     10 C         140.6676  142.0561  162.9318 C.ar    1  UNL1        0.1482
     11 H         139.7915  143.4951  166.8507 H       1  UNL1        0.1437
     12 H         139.0139  144.9262  166.3456 H       1  UNL1        0.1437
     13 C         140.9921  141.3204  166.7290 C.ar    1  UNL1        0.0304
     14 C         139.8650  140.6470  167.4542 C.ar    1  UNL1        0.0172
     15 C         139.8502  140.6159  168.9538 C.ar    1  UNL1        0.0524
     16 N         138.7230  139.9424  169.6789 N.pl3   1  UNL1       -0.3563
     17 C         140.9626  141.2584  169.7283 C.ar    1  UNL1        0.0727
     18 CL        140.9478  141.2274  171.2279 Cl      1  UNL1       -0.0809
     19 C         142.0897  141.9319  169.0031 C.ar    1  UNL1        0.0423
     20 C         142.1045  141.9630  167.5035 C.ar    1  UNL1        0.1410
     21 F         143.2317  142.6365  166.7784 F       1  UNL1       -0.2041
     22 H         137.9929  139.5207  169.1706 H       1  UNL1        0.1424
     23 H         138.7133  139.9220  170.6632 H       1  UNL1        0.1424
     24 C         142.7043  138.5017  159.2367 C.3     1  UNL1        0.0600
     25 C         141.2692  138.4553  159.6708 C.3     1  UNL1        0.0200
     26 C         140.8317  139.2022  160.8959 C.3     1  UNL1        0.0225
     27 C         141.8291  139.9956  161.6867 C.3     1  UNL1        0.0699
     28 C         143.2643  140.0421  161.2525 C.3     1  UNL1        0.0225
     29 C         143.7018  139.2951  160.0275 C.3     1  UNL1        0.0200
     30 C         142.1162  139.6027  161.0225 C.3     1  UNL1        0.0225
     31 C         142.5118  138.9273  159.9148 C.3     1  UNL1        0.0200
     32 C         143.0442  138.4037  156.6628 C.2     1  UNL1        0.4017
     33 O         142.5090  139.7995  156.5389 O.2     1  UNL1       -0.2264
     34 N         143.1418  137.7548  158.0116 N.am    1  UNL1       -0.2738
     35 H         143.4930  136.8387  158.0929 H       1  UNL1        0.1526
     36 C         144.0648  136.2806  155.5668 C.3     1  UNL1        0.2573
     37 O         143.4817  137.6566  155.4378 O.3     1  UNL1       -0.4306
@<TRIPOS>BOND
     1    36    37    1
     2    37    32    1
     3    32    33    2
     4    32    34   am
     5    34    24    1
     6    24    25    1
     7    25    26    1
     8    26    27    1
     9    27     1    1
    10     1     2   ar
    11     2     3   ar
    12     3    13    1
    13    13    14   ar
    14    14    15   ar
    15    15    16    1
    16    15    17   ar
    17    17    18    1
    18    17    19   ar
    19    19    20   ar
    20    20    21    1
    21     3     4   ar
    22     4     5   ar
    23     5     6    1
    24     5     7   ar
    25     7     8   ar
    26     8     9   ar
    27     9    10   ar
    28    27    28    1
    29    28    29    1
    30    27    30    1
    31    30    31    1
    32    29    24    1
    33    31    24    1
    34    10     1   ar
    35    20    13   ar
    36    10     4   ar
    37    34    35    1
    38    16    22    1
    39    16    23    1
    40     6    11    1
    41     6    12    1
@<TRIPOS>MOLECULE
*****
 37 41 0 0 0
SMALL
GASTEIGER

@<TRIPOS>ATOM
      1 N         141.2744  140.8989  166.9178 N.ar    1  UNL1       -0.3150
      2 C         141.8461  140.8172  165.5335 C.ar    1  UNL1        0.0771
      3 C         140.9701  139.9085  164.7231 C.ar    1  UNL1        0.0251
      4 C         139.8570  139.4285  165.6066 C.ar    1  UNL1        0.0669
      5 C         138.6965  138.5132  165.3512 C.ar    1  UNL1        0.1300
      6 N         138.5084  137.9011  163.9947 N.pl3   1  UNL1       -0.3425
      7 N         137.7240  138.2099  166.4522 N.ar    1  UNL1       -0.2094
      8 C         137.9121  138.8220  167.8087 C.ar    1  UNL1        0.2014
      9 N         139.0726  139.7373  168.0641 N.ar    1  UNL1       -0.2065
     10 C         140.0451  140.0406  166.9630 C.ar    1  UNL1        0.1482
     11 H         139.1466  138.1001  163.2720 H       1  UNL1        0.1437
     12 H         137.7466  137.3003  163.8271 H       1  UNL1        0.1437
     13 C         141.1718  139.5438  163.2821 C.ar    1  UNL1        0.0304
     14 C         142.2006  138.5197  162.9045 C.ar    1  UNL1        0.0172
     15 C         142.4022  138.1550  161.4636 C.ar    1  UNL1        0.0524
     16 N         143.4311  137.1309  161.0860 N.pl3   1  UNL1       -0.3563
     17 C         141.5750  138.8144  160.4002 C.ar    1  UNL1        0.0727
     18 CL        141.7766  138.4496  158.9592 Cl      1  UNL1       -0.0809
     19 C         140.5461  139.8385  160.7777 C.ar    1  UNL1        0.0423
     20 C         140.3444  140.2032  162.2187 C.ar    1  UNL1        0.1410
     21 F         139.3155  141.2273  162.5962 F       1  UNL1       -0.2041
     22 H         143.9741  136.6981  161.7840 H       1  UNL1        0.1424
     23 H         143.5635  136.8915  160.1403 H       1  UNL1        0.1424
     24 C         142.9528  143.2974  170.3355 C.3     1  UNL1        0.0600
     25 C         141.5904  143.6149  169.7942 C.3     1  UNL1        0.0200
     26 C         141.0310  142.8153  168.6550 C.3     1  UNL1        0.0225
     27 C         141.8339  141.6984  168.0570 C.3     1  UNL1        0.0699
     28 C         143.1964  141.3809  168.5984 C.3     1  UNL1        0.0225
     29 C         143.7558  142.1804  169.7376 C.3     1  UNL1        0.0200
     30 C         142.1825  142.1085  168.6801 C.3     1  UNL1        0.0225
     31 C         142.6883  142.8315  169.7102 C.3     1  UNL1        0.0200
     32 C         144.9566  144.5013  171.4691 C.2     1  UNL1        0.4017
     33 O         145.8417  144.1062  170.3243 O.2     1  UNL1       -0.2264
     34 N         143.5122  144.0970  171.4747 N.am    1  UNL1       -0.2738
     35 H         142.9313  144.3563  172.2261 H       1  UNL1        0.1526
     36 C         146.5081  146.3938  172.3417 C.3     1  UNL1        0.2573
     37 O         145.5160  145.3009  172.6084 O.3     1  UNL1       -0.4306
@<TRIPOS>BOND
     1    36    37    1
     2    37    32    1
     3    32    33    2
     4    32    34   am
     5    34    24    1
     6    24    25    1
     7    25    26    1
     8    26    27    1
     9    27     1    1
    10     1     2   ar
    11     2     3   ar
    12     3    13    1
    13    13    14   ar
    14    14    15   ar
    15    15    16    1
    16    15    17   ar
    17    17    18    1
    18    17    19   ar
    19    19    20   ar
    20    20    21    1
    21     3     4   ar
    22     4     5   ar
    23     5     6    1
    24     5     7   ar
    25     7     8   ar
    26     8     9   ar
    27     9    10   ar
    28    27    28    1
    29    28    29    1
    30    27    30    1
    31    30    31    1
    32    29    24    1
    33    31    24    1
    34    10     1   ar
    35    20    13   ar
    36    10     4   ar
    37    34    35    1
    38    16    22    1
    39    16    23    1
    40     6    11    1
    41     6    12    1
@<TRIPOS>MOLECULE
*****
 37 41 0 0 0
SMALL
GASTEIGER

@<TRIPOS>ATOM
      1 N         140.6914  141.6503  163.3303 N.ar    1  UNL1       -0.3150
      2 C         140.3231  141.3917  164.7612 C.ar    1  UNL1        0.0771
      3 C         141.4315  141.9138  165.6267 C.ar    1  UNL1        0.0251
      4 C         142.4847  142.4951  164.7307 C.ar    1  UNL1        0.0669
      5 C         143.8011  143.1517  165.0237 C.ar    1  UNL1        0.1300
      6 N         144.2585  143.3145  166.4430 N.pl3   1  UNL1       -0.3425
      7 N         144.6601  143.6454  163.8976 N.ar    1  UNL1       -0.2094
      8 C         144.2027  143.4825  162.4783 C.ar    1  UNL1        0.2014
      9 N         142.8863  142.8260  162.1853 N.ar    1  UNL1       -0.2065
     10 C         142.0273  142.3322  163.3114 C.ar    1  UNL1        0.1482
     11 H         143.6947  142.9905  167.1821 H       1  UNL1        0.1437
     12 H         145.1225  143.7455  166.6353 H       1  UNL1        0.1437
     13 C         141.4784  141.8635  167.1251 C.ar    1  UNL1        0.0304
     14 C         140.7269  142.8791  167.9336 C.ar    1  UNL1        0.0172
     15 C         140.7738  142.8288  169.4320 C.ar    1  UNL1        0.0524
     16 N         140.0224  143.8445  170.2404 N.pl3   1  UNL1       -0.3563
     17 C         141.5722  141.7628  170.1220 C.ar    1  UNL1        0.0727
     18 CL        141.6191  141.7124  171.6204 Cl      1  UNL1       -0.0809
     19 C         142.3237  140.7470  169.3136 C.ar    1  UNL1        0.0423
     20 C         142.2768  140.7974  167.8151 C.ar    1  UNL1        0.1410
     21 F         143.0283  139.7817  167.0067 F       1  UNL1       -0.2041
     22 H         139.4983  144.5442  169.7876 H       1  UNL1        0.1424
     23 H         140.0532  143.8115  171.2239 H       1  UNL1        0.1424
     24 C         138.2220  140.5699  159.7268 C.3     1  UNL1        0.0600
     25 C         138.1354  141.9495  160.3092 C.3     1  UNL1        0.0200
     26 C         138.9585  142.3096  161.5104 C.3     1  UNL1        0.0225
     27 C         139.8683  141.2902  162.1292 C.3     1  UNL1        0.0699
     28 C         139.9550  139.9105  161.5468 C.3     1  UNL1        0.0225
     29 C         139.1318  139.5504  160.3456 C.3     1  UNL1        0.0200
     30 C         139.4367  141.0462  161.4718 C.3     1  UNL1        0.0225
     31 C         138.6924  140.7206  160.3856 C.3     1  UNL1        0.0200
     32 C         137.8836  140.5634  157.1509 C.2     1  UNL1        0.4017
     33 O         139.1914  141.2772  156.9773 O.2     1  UNL1       -0.2264
     34 N         137.3989  140.2098  158.5256 N.am    1  UNL1       -0.2738
     35 H         136.5406  139.7413  158.6396 H       1  UNL1        0.1526
     36 C         135.6942  140.7963  155.7717 C.3     1  UNL1        0.2573
     37 O         137.0604  140.2032  155.9497 O.3     1  UNL1       -0.4306
@<TRIPOS>BOND
     1    36    37    1
     2    37    32    1
     3    32    33    2
     4    32    34   am
     5    34    24    1
     6    24    25    1
     7    25    26    1
     8    26    27    1
     9    27     1    1
    10     1     2   ar
    11     2     3   ar
    12     3    13    1
    13    13    14   ar
    14    14    15   ar
    15    15    16    1
    16    15    17   ar
    17    17    18    1
    18    17    19   ar
    19    19    20   ar
    20    20    21    1
    21     3     4   ar
    22     4     5   ar
    23     5     6    1
    24     5     7   ar
    25     7     8   ar
    26     8     9   ar
    27     9    10   ar
    28    27    28    1
    29    28    29    1
    30    27    30    1
    31    30    31    1
    32    29    24    1
    33    31    24    1
    34    10     1   ar
    35    20    13   ar
    36    10     4   ar
    37    34    35    1
    38    16    22    1
    39    16    23    1
    40     6    11    1
    41     6    12    1
@<TRIPOS>MOLECULE
*****
 37 41 0 0 0
SMALL
GASTEIGER

@<TRIPOS>ATOM
      1 N         142.3297  139.8148  162.5673 N.ar    1  UNL1       -0.3150
      2 C         141.6912  139.3369  163.8377 C.ar    1  UNL1        0.0771
      3 C         142.1036  140.2653  164.9413 C.ar    1  UNL1        0.0251
      4 C         142.9969  141.3169  164.3530 C.ar    1  UNL1        0.0669
      5 C         143.7011  142.4921  164.9639 C.ar    1  UNL1        0.1300
      6 N         143.5613  142.7705  166.4312 N.pl3   1  UNL1       -0.3425
      7 N         144.5450  143.3888  164.1074 N.ar    1  UNL1       -0.2094
      8 C         144.6848  143.1103  162.6401 C.ar    1  UNL1        0.2014
      9 N         143.9806  141.9352  162.0293 N.ar    1  UNL1       -0.2065
     10 C         143.1366  141.0385  162.8858 C.ar    1  UNL1        0.1482
     11 H         143.0074  142.1819  166.9933 H       1  UNL1        0.1437
     12 H         144.0235  143.5418  166.8320 H       1  UNL1        0.1437
     13 C         141.6945  140.1604  166.3807 C.ar    1  UNL1        0.0304
     14 C         142.5697  139.4336  167.3582 C.ar    1  UNL1        0.0172
     15 C         142.1606  139.3288  168.7975 C.ar    1  UNL1        0.0524
     16 N         143.0359  138.6020  169.7750 N.pl3   1  UNL1       -0.3563
     17 C         140.8762  139.9508  169.2593 C.ar    1  UNL1        0.0727
     18 CL        140.4671  139.8460  170.6987 Cl      1  UNL1       -0.0809
     19 C         140.0009  140.6777  168.2819 C.ar    1  UNL1        0.0423
     20 C         140.4100  140.7825  166.8425 C.ar    1  UNL1        0.1410
     21 F         139.5346  141.5093  165.8650 F       1  UNL1       -0.2041
     22 H         143.8790  138.1937  169.4719 H       1  UNL1        0.1424
     23 H         142.7674  138.5332  170.7196 H       1  UNL1        0.1424
     24 C         141.8998  137.9116  158.5122 C.3     1  UNL1        0.0600
     25 C         142.9117  137.3832  159.4852 C.3     1  UNL1        0.0200
     26 C         143.0550  138.0177  160.8369 C.3     1  UNL1        0.0225
     27 C         142.1864  139.1804  161.2156 C.3     1  UNL1        0.0699
     28 C         141.1744  139.7088  160.2425 C.3     1  UNL1        0.0225
     29 C         141.0311  139.0744  158.8909 C.3     1  UNL1        0.0200
     30 C         142.0713  138.8657  160.4635 C.3     1  UNL1        0.0225
     31 C         141.9418  138.2920  159.2413 C.3     1  UNL1        0.0200
     32 C         142.7972  137.5142  156.1067 C.2     1  UNL1        0.4017
     33 O         143.9812  138.3856  156.4044 O.2     1  UNL1       -0.2264
     34 N         141.7565  137.2772  157.1606 N.am    1  UNL1       -0.2738
     35 H         140.9794  136.7052  156.9651 H       1  UNL1        0.1526
     36 C         143.0639  135.4516  154.5496 C.3     1  UNL1        0.2573
     37 O         142.6538  136.8797  154.7550 O.3     1  UNL1       -0.4306
@<TRIPOS>BOND
     1    36    37    1
     2    37    32    1
     3    32    33    2
     4    32    34   am
     5    34    24    1
     6    24    25    1
     7    25    26    1
     8    26    27    1
     9    27     1    1
    10     1     2   ar
    11     2     3   ar
    12     3    13    1
    13    13    14   ar
    14    14    15   ar
    15    15    16    1
    16    15    17   ar
    17    17    18    1
    18    17    19   ar
    19    19    20   ar
    20    20    21    1
    21     3     4   ar
    22     4     5   ar
    23     5     6    1
    24     5     7   ar
    25     7     8   ar
    26     8     9   ar
    27     9    10   ar
    28    27    28    1
    29    28    29    1
    30    27    30    1
    31    30    31    1
    32    29    24    1
    33    31    24    1
    34    10     1   ar
    35    20    13   ar
    36    10     4   ar
    37    34    35    1
    38    16    22    1
    39    16    23    1
    40     6    11    1
    41     6    12    1
