@<TRIPOS>MOLECULE
*****
 34 38 0 0 0
SMALL
GASTEIGER

@<TRIPOS>ATOM
      1 N         143.0352  144.0571  162.4404 N.3     1  UNL1       -0.2723
      2 C         142.1825  143.6394  161.2791 C.3     1  UNL1        0.0735
      3 C         140.7322  144.0200  161.2384 C.3     1  UNL1        0.0331
      4 C         140.1345  144.8184  162.3589 C.3     1  UNL1        0.0570
      5 C         140.9872  145.2361  163.5201 C.3     1  UNL1        0.0331
      6 C         142.4375  144.8555  163.5608 C.3     1  UNL1        0.0735
      7 N         138.6842  145.1990  162.3181 N.3     1  UNL1       -0.2934
      8 H         138.4073  145.1994  161.3364 H       1  UNL1        0.1236
      9 C         137.6710  144.3727  163.0534 C.3     1  UNL1        0.1152
     10 C         137.8600  142.8899  163.1777 C.ar    1  UNL1        0.0782
     11 C         138.1888  142.2848  164.5102 C.ar    1  UNL1        0.0562
     12 C         138.3779  140.8019  164.6344 C.ar    1  UNL1        0.1752
     13 C         138.2382  139.9242  163.4261 C.ar    1  UNL1        0.1914
     14 C         137.9094  140.5293  162.0935 C.ar    1  UNL1        0.1384
     15 N         137.7204  142.0121  161.9693 N.ar    1  UNL1       -0.2434
     16 O         138.4273  138.4413  163.5503 O.3     1  UNL1       -0.4668
     17 C         138.7561  137.8362  164.8829 C.3     1  UNL1        0.2527
     18 C         138.8958  138.7140  166.0912 C.3     1  UNL1        0.2526
     19 O         138.7067  140.1968  165.9670 O.3     1  UNL1       -0.4683
     20 C         144.4855  143.6765  162.4811 C.3     1  UNL1        0.0769
     21 C         144.9480  142.5811  163.3955 C.3     1  UNL1        0.0462
     22 C         143.5943  139.2170  160.7309 C.ar    1  UNL1        0.2250
     23 C         142.6143  138.2031  161.2422 C.ar    1  UNL1        0.0593
     24 C         142.0855  138.3105  162.6418 C.ar    1  UNL1        0.0254
     25 C         142.5367  139.4318  163.5300 C.ar    1  UNL1        0.0989
     26 N         142.0080  139.5392  164.9296 N.ar    1  UNL1       -0.2415
     27 C         142.4592  140.6606  165.8179 C.ar    1  UNL1        0.1099
     28 C         143.4392  141.6746  165.3065 C.ar    1  UNL1        0.0743
     29 CL        143.8904  142.7959  166.1947 Cl      1  UNL1       -0.0809
     30 C         143.9680  141.5672  163.9069 C.ar    1  UNL1        0.0105
     31 C         143.5167  140.4457  163.0187 C.ar    1  UNL1        0.0989
     32 N         144.0455  140.3383  161.6191 N.ar    1  UNL1       -0.2104
     33 C         143.4103  139.7981  158.2053 C.3     1  UNL1        0.2542
     34 O         144.1231  139.1096  159.3313 O.3     1  UNL1       -0.4561
@<TRIPOS>BOND
     1    33    34    1
     2    34    22    1
     3    22    23   ar
     4    23    24   ar
     5    24    25   ar
     6    25    26   ar
     7    26    27   ar
     8    27    28   ar
     9    28    29    1
    10    28    30   ar
    11    30    21    1
    12    21    20    1
    13    20     1    1
    14     1     2    1
    15     2     3    1
    16     3     4    1
    17     4     7    1
    18     7     9    1
    19     9    10    1
    20    10    11   ar
    21    11    12   ar
    22    12    13   ar
    23    13    14   ar
    24    14    15   ar
    25    13    16    1
    26    16    17    1
    27    17    18    1
    28    18    19    1
    29     4     5    1
    30     5     6    1
    31    30    31   ar
    32    31    32   ar
    33    32    22   ar
    34    31    25   ar
    35     6     1    1
    36    15    10   ar
    37    19    12    1
    38     7     8    1
@<TRIPOS>MOLECULE
*****
 34 38 0 0 0
SMALL
GASTEIGER

@<TRIPOS>ATOM
      1 N         142.9845  144.0014  162.7827 N.3     1  UNL1       -0.2723
      2 C         142.2846  144.6489  163.9406 C.3     1  UNL1        0.0735
      3 C         140.8381  145.0285  163.8255 C.3     1  UNL1        0.0331
      4 C         140.0913  144.7606  162.5524 C.3     1  UNL1        0.0570
      5 C         140.7912  144.1131  161.3945 C.3     1  UNL1        0.0331
      6 C         142.2379  143.7335  161.5096 C.3     1  UNL1        0.0735
      7 N         138.6447  145.1402  162.4374 N.3     1  UNL1       -0.2934
      8 H         138.4407  145.2244  161.4415 H       1  UNL1        0.1236
      9 C         137.5873  144.2516  163.0224 C.3     1  UNL1        0.1152
     10 C         137.7955  142.7668  163.0664 C.ar    1  UNL1        0.0782
     11 C         137.9962  142.0763  164.3829 C.ar    1  UNL1        0.0562
     12 C         138.2044  140.5914  164.4268 C.ar    1  UNL1        0.1752
     13 C         138.2119  139.7971  163.1545 C.ar    1  UNL1        0.1914
     14 C         138.0112  140.4876  161.8381 C.ar    1  UNL1        0.1384
     15 N         137.8030  141.9724  161.7940 N.ar    1  UNL1       -0.2434
     16 O         138.4201  138.3123  163.1985 O.3     1  UNL1       -0.4668
     17 C         138.6208  137.6218  164.5149 C.3     1  UNL1        0.2527
     18 C         138.6132  138.4162  165.7873 C.3     1  UNL1        0.2526
     19 O         138.4050  139.9010  165.7433 O.3     1  UNL1       -0.4683
     20 C         144.4311  143.6218  162.8977 C.3     1  UNL1        0.0769
     21 C         144.8428  142.5028  163.8079 C.3     1  UNL1        0.0462
     22 C         142.9267  141.9100  167.8362 C.ar    1  UNL1        0.2250
     23 C         142.0032  140.7503  168.0641 C.ar    1  UNL1        0.0593
     24 C         141.7183  139.7881  166.9492 C.ar    1  UNL1        0.0254
     25 C         142.3570  139.9856  165.6064 C.ar    1  UNL1        0.0989
     26 N         142.0721  139.0234  164.4915 N.ar    1  UNL1       -0.2415
     27 C         142.7108  139.2210  163.1488 C.ar    1  UNL1        0.1099
     28 C         143.6344  140.3808  162.9209 C.ar    1  UNL1        0.0743
     29 CL        144.2730  140.5784  161.5781 Cl      1  UNL1       -0.0809
     30 C         143.9192  141.3430  164.0358 C.ar    1  UNL1        0.0105
     31 C         143.2805  141.1454  165.3786 C.ar    1  UNL1        0.0989
     32 N         143.5654  142.1076  166.4935 N.ar    1  UNL1       -0.2104
     33 C         142.3499  142.8740  170.1789 C.3     1  UNL1        0.2542
     34 O         143.2116  142.8722  168.9511 O.3     1  UNL1       -0.4561
@<TRIPOS>BOND
     1    33    34    1
     2    34    22    1
     3    22    23   ar
     4    23    24   ar
     5    24    25   ar
     6    25    26   ar
     7    26    27   ar
     8    27    28   ar
     9    28    29    1
    10    28    30   ar
    11    30    21    1
    12    21    20    1
    13    20     1    1
    14     1     2    1
    15     2     3    1
    16     3     4    1
    17     4     7    1
    18     7     9    1
    19     9    10    1
    20    10    11   ar
    21    11    12   ar
    22    12    13   ar
    23    13    14   ar
    24    14    15   ar
    25    13    16    1
    26    16    17    1
    27    17    18    1
    28    18    19    1
    29     4     5    1
    30     5     6    1
    31    30    31   ar
    32    31    32   ar
    33    32    22   ar
    34    31    25   ar
    35     6     1    1
    36    15    10   ar
    37    19    12    1
    38     7     8    1
@<TRIPOS>MOLECULE
*****
 34 38 0 0 0
SMALL
GASTEIGER

@<TRIPOS>ATOM
      1 N         141.7661  138.0960  164.2873 N.3     1  UNL1       -0.2723
      2 C         142.7904  138.4757  165.3152 C.3     1  UNL1        0.0735
      3 C         144.0241  139.2233  164.9042 C.3     1  UNL1        0.0331
      4 C         144.2335  139.5914  163.4652 C.3     1  UNL1        0.0570
      5 C         143.2092  139.2118  162.4372 C.3     1  UNL1        0.0331
      6 C         141.9754  138.4641  162.8484 C.3     1  UNL1        0.0735
      7 N         145.4671  140.3391  163.0541 N.3     1  UNL1       -0.2934
      8 H         145.5674  140.2108  162.0472 H       1  UNL1        0.1236
      9 C         145.5733  141.8123  163.3155 C.3     1  UNL1        0.1152
     10 C         144.3648  142.6888  163.1702 C.ar    1  UNL1        0.0782
     11 C         143.8995  143.1045  161.8061 C.ar    1  UNL1        0.0562
     12 C         142.6910  143.9811  161.6607 C.ar    1  UNL1        0.1752
     13 C         141.9478  144.4419  162.8794 C.ar    1  UNL1        0.1914
     14 C         142.4131  144.0262  164.2435 C.ar    1  UNL1        0.1384
     15 N         143.6215  143.1497  164.3889 N.ar    1  UNL1       -0.2434
     16 O         140.7392  145.3185  162.7341 O.3     1  UNL1       -0.4668
     17 C         140.2739  145.7342  161.3700 C.3     1  UNL1        0.2527
     18 C         141.0172  145.2733  160.1513 C.3     1  UNL1        0.2526
     19 O         142.2257  144.3968  160.2967 O.3     1  UNL1       -0.4683
     20 C         140.5324  137.3484  164.6984 C.3     1  UNL1        0.0769
     21 C         139.3200  138.0996  165.1631 C.3     1  UNL1        0.0462
     22 C         140.7437  140.8756  168.4060 C.ar    1  UNL1        0.2250
     23 C         140.6613  142.3606  168.2116 C.ar    1  UNL1        0.0593
     24 C         140.1045  142.9204  166.9362 C.ar    1  UNL1        0.0254
     25 C         139.6300  141.9950  165.8552 C.ar    1  UNL1        0.0989
     26 N         139.0731  142.5548  164.5798 N.ar    1  UNL1       -0.2415
     27 C         138.5986  141.6295  163.4989 C.ar    1  UNL1        0.1099
     28 C         138.6809  140.1443  163.6932 C.ar    1  UNL1        0.0743
     29 CL        138.2064  139.2190  162.6123 Cl      1  UNL1       -0.0809
     30 C         139.2377  139.5846  164.9686 C.ar    1  UNL1        0.0105
     31 C         139.7123  140.5100  166.0497 C.ar    1  UNL1        0.0989
     32 N         140.2691  139.9503  167.3251 N.ar    1  UNL1       -0.2104
     33 C         142.4103  139.3078  169.6366 C.3     1  UNL1        0.2542
     34 O         141.3005  140.3159  169.6814 O.3     1  UNL1       -0.4561
@<TRIPOS>BOND
     1    33    34    1
     2    34    22    1
     3    22    23   ar
     4    23    24   ar
     5    24    25   ar
     6    25    26   ar
     7    26    27   ar
     8    27    28   ar
     9    28    29    1
    10    28    30   ar
    11    30    21    1
    12    21    20    1
    13    20     1    1
    14     1     2    1
    15     2     3    1
    16     3     4    1
    17     4     7    1
    18     7     9    1
    19     9    10    1
    20    10    11   ar
    21    11    12   ar
    22    12    13   ar
    23    13    14   ar
    24    14    15   ar
    25    13    16    1
    26    16    17    1
    27    17    18    1
    28    18    19    1
    29     4     5    1
    30     5     6    1
    31    30    31   ar
    32    31    32   ar
    33    32    22   ar
    34    31    25   ar
    35     6     1    1
    36    15    10   ar
    37    19    12    1
    38     7     8    1
@<TRIPOS>MOLECULE
*****
 34 38 0 0 0
SMALL
GASTEIGER

@<TRIPOS>ATOM
      1 N         137.8273  142.8807  163.1852 N.3     1  UNL1       -0.2723
      2 C         138.0114  142.5171  161.7416 C.3     1  UNL1        0.0735
      3 C         138.0959  141.0754  161.3363 C.3     1  UNL1        0.0331
      4 C         137.9962  139.9973  162.3745 C.3     1  UNL1        0.0570
      5 C         137.8120  140.3610  163.8181 C.3     1  UNL1        0.0331
      6 C         137.7275  141.8027  164.2234 C.3     1  UNL1        0.0735
      7 N         138.0806  138.5556  161.9692 N.3     1  UNL1       -0.2934
      8 H         138.4445  138.5384  161.0165 H       1  UNL1        0.1236
      9 C         138.9150  137.5993  162.7688 C.3     1  UNL1        0.1152
     10 C         140.2660  138.0188  163.2675 C.ar    1  UNL1        0.0782
     11 C         141.1382  138.8979  162.4212 C.ar    1  UNL1        0.0562
     12 C         142.4893  139.3174  162.9200 C.ar    1  UNL1        0.1752
     13 C         142.9681  138.8576  164.2651 C.ar    1  UNL1        0.1914
     14 C         142.0959  137.9784  165.1114 C.ar    1  UNL1        0.1384
     15 N         140.7449  137.5590  164.6127 N.ar    1  UNL1       -0.2434
     16 O         144.3192  139.2771  164.7639 O.3     1  UNL1       -0.4668
     17 C         145.1914  140.1563  163.9176 C.3     1  UNL1        0.2527
     18 C         144.7125  140.6160  162.5724 C.3     1  UNL1        0.2526
     19 O         143.3615  140.1966  162.0737 O.3     1  UNL1       -0.4683
     20 C         137.7428  144.3224  163.5905 C.3     1  UNL1        0.0769
     21 C         138.8475  144.9414  164.3947 C.3     1  UNL1        0.0462
     22 C         140.9086  142.1967  167.3048 C.ar    1  UNL1        0.2250
     23 C         142.3310  141.7838  167.0677 C.ar    1  UNL1        0.0593
     24 C         143.0664  142.2858  165.8605 C.ar    1  UNL1        0.0254
     25 C         142.3794  143.2006  164.8905 C.ar    1  UNL1        0.0989
     26 N         143.1148  143.7026  163.6833 N.ar    1  UNL1       -0.2415
     27 C         142.4278  144.6175  162.7133 C.ar    1  UNL1        0.1099
     28 C         141.0053  145.0304  162.9504 C.ar    1  UNL1        0.0743
     29 CL        140.3183  145.9453  161.9804 Cl      1  UNL1       -0.0809
     30 C         140.2699  144.5285  164.1576 C.ar    1  UNL1        0.0105
     31 C         140.9570  143.6136  165.1276 C.ar    1  UNL1        0.0989
     32 N         140.2216  143.1116  166.3348 N.ar    1  UNL1       -0.2104
     33 C         139.9939  140.2204  168.7216 C.3     1  UNL1        0.2542
     34 O         140.1732  141.6948  168.5119 O.3     1  UNL1       -0.4561
@<TRIPOS>BOND
     1    33    34    1
     2    34    22    1
     3    22    23   ar
     4    23    24   ar
     5    24    25   ar
     6    25    26   ar
     7    26    27   ar
     8    27    28   ar
     9    28    29    1
    10    28    30   ar
    11    30    21    1
    12    21    20    1
    13    20     1    1
    14     1     2    1
    15     2     3    1
    16     3     4    1
    17     4     7    1
    18     7     9    1
    19     9    10    1
    20    10    11   ar
    21    11    12   ar
    22    12    13   ar
    23    13    14   ar
    24    14    15   ar
    25    13    16    1
    26    16    17    1
    27    17    18    1
    28    18    19    1
    29     4     5    1
    30     5     6    1
    31    30    31   ar
    32    31    32   ar
    33    32    22   ar
    34    31    25   ar
    35     6     1    1
    36    15    10   ar
    37    19    12    1
    38     7     8    1
@<TRIPOS>MOLECULE
*****
 34 38 0 0 0
SMALL
GASTEIGER

@<TRIPOS>ATOM
      1 N         138.0991  139.8578  162.0505 N.3     1  UNL1       -0.2723
      2 C         137.6309  140.4979  163.3237 C.3     1  UNL1        0.0735
      3 C         137.5248  141.9912  163.4175 C.3     1  UNL1        0.0331
      4 C         137.8869  142.8444  162.2381 C.3     1  UNL1        0.0570
      5 C         138.3551  142.2042  160.9649 C.3     1  UNL1        0.0331
      6 C         138.4612  140.7109  160.8711 C.3     1  UNL1        0.0735
      7 N         137.7808  144.3377  162.3318 N.3     1  UNL1       -0.2934
      8 H         137.0456  144.5386  163.0097 H       1  UNL1        0.1236
      9 C         138.9752  145.1506  162.7348 C.3     1  UNL1        0.1152
     10 C         140.3557  144.5874  162.5709 C.ar    1  UNL1        0.0782
     11 C         141.0572  143.9681  163.7432 C.ar    1  UNL1        0.0562
     12 C         142.4378  143.4048  163.5792 C.ar    1  UNL1        0.1752
     13 C         143.1168  143.4609  162.2429 C.ar    1  UNL1        0.1914
     14 C         142.4154  144.0803  161.0706 C.ar    1  UNL1        0.1384
     15 N         141.0349  144.6435  161.2345 N.ar    1  UNL1       -0.2434
     16 O         144.4974  142.8977  162.0789 O.3     1  UNL1       -0.4668
     17 C         145.1989  142.2783  163.2512 C.3     1  UNL1        0.2527
     18 C         144.5197  142.2223  164.5876 C.3     1  UNL1        0.2526
     19 O         143.1392  142.7855  164.7515 O.3     1  UNL1       -0.4683
     20 C         138.2053  138.3645  161.9568 C.3     1  UNL1        0.0769
     21 C         138.8661  137.5889  163.0577 C.3     1  UNL1        0.0462
     22 C         142.6984  137.7843  160.7071 C.ar    1  UNL1        0.2250
     23 C         143.9469  138.3108  161.3506 C.ar    1  UNL1        0.0593
     24 C         143.9179  138.7723  162.7775 C.ar    1  UNL1        0.0254
     25 C         142.6405  138.7071  163.5611 C.ar    1  UNL1        0.0989
     26 N         142.6115  139.1685  164.9880 N.ar    1  UNL1       -0.2415
     27 C         141.3341  139.1034  165.7715 C.ar    1  UNL1        0.1099
     28 C         140.0856  138.5769  165.1281 C.ar    1  UNL1        0.0743
     29 CL        138.8082  138.5118  165.9116 Cl      1  UNL1       -0.0809
     30 C         140.1145  138.1155  163.7011 C.ar    1  UNL1        0.0105
     31 C         141.3920  138.1806  162.9176 C.ar    1  UNL1        0.0989
     32 N         141.4210  137.7192  161.4906 N.ar    1  UNL1       -0.2104
     33 C         142.7183  138.3278  158.1666 C.3     1  UNL1        0.2542
     34 O         142.7274  137.3229  159.2801 O.3     1  UNL1       -0.4561
@<TRIPOS>BOND
     1    33    34    1
     2    34    22    1
     3    22    23   ar
     4    23    24   ar
     5    24    25   ar
     6    25    26   ar
     7    26    27   ar
     8    27    28   ar
     9    28    29    1
    10    28    30   ar
    11    30    21    1
    12    21    20    1
    13    20     1    1
    14     1     2    1
    15     2     3    1
    16     3     4    1
    17     4     7    1
    18     7     9    1
    19     9    10    1
    20    10    11   ar
    21    11    12   ar
    22    12    13   ar
    23    13    14   ar
    24    14    15   ar
    25    13    16    1
    26    16    17    1
    27    17    18    1
    28    18    19    1
    29     4     5    1
    30     5     6    1
    31    30    31   ar
    32    31    32   ar
    33    32    22   ar
    34    31    25   ar
    35     6     1    1
    36    15    10   ar
    37    19    12    1
    38     7     8    1
@<TRIPOS>MOLECULE
*****
 34 38 0 0 0
SMALL
GASTEIGER

@<TRIPOS>ATOM
      1 N         144.2476  139.6592  163.6966 N.3     1  UNL1       -0.2723
      2 C         143.3462  139.2303  164.8162 C.3     1  UNL1        0.0735
      3 C         142.1494  138.3730  164.5291 C.3     1  UNL1        0.0331
      4 C         141.8539  137.9445  163.1222 C.3     1  UNL1        0.0570
      5 C         142.7553  138.3733  162.0026 C.3     1  UNL1        0.0331
      6 C         143.9522  139.2307  162.2898 C.3     1  UNL1        0.0735
      7 N         140.6571  137.0871  162.8350 N.3     1  UNL1       -0.2934
      8 H         140.7702  136.2318  163.3791 H       1  UNL1        0.1236
      9 C         139.2783  137.6036  163.1218 C.3     1  UNL1        0.1152
     10 C         138.9338  139.0313  162.8169 C.ar    1  UNL1        0.0782
     11 C         138.8230  140.0303  163.9303 C.ar    1  UNL1        0.0562
     12 C         138.4784  141.4581  163.6254 C.ar    1  UNL1        0.1752
     13 C         138.2446  141.8867  162.2071 C.ar    1  UNL1        0.1914
     14 C         138.3554  140.8877  161.0937 C.ar    1  UNL1        0.1384
     15 N         138.7000  139.4600  161.3986 N.ar    1  UNL1       -0.2434
     16 O         137.9001  143.3144  161.9021 O.3     1  UNL1       -0.4668
     17 C         137.7893  144.3135  163.0155 C.3     1  UNL1        0.2527
     18 C         138.0231  143.8848  164.4339 C.3     1  UNL1        0.2526
     19 O         138.3676  142.4571  164.7388 O.3     1  UNL1       -0.4683
     20 C         145.4445  140.5165  163.9838 C.3     1  UNL1        0.0769
     21 C         145.3956  141.9899  163.7065 C.3     1  UNL1        0.0462
     22 C         143.9694  142.8051  159.5171 C.ar    1  UNL1        0.2250
     23 C         142.6501  143.4827  159.2925 C.ar    1  UNL1        0.0593
     24 C         141.8063  143.8885  160.4643 C.ar    1  UNL1        0.0254
     25 C         142.2816  143.6167  161.8608 C.ar    1  UNL1        0.0989
     26 N         141.4378  144.0225  163.0326 N.ar    1  UNL1       -0.2415
     27 C         141.9132  143.7508  164.4291 C.ar    1  UNL1        0.1099
     28 C         143.2325  143.0732  164.6537 C.ar    1  UNL1        0.0743
     29 CL        143.7079  142.8015  166.0502 Cl      1  UNL1       -0.0809
     30 C         144.0763  142.6674  163.4819 C.ar    1  UNL1        0.0105
     31 C         143.6009  142.9392  162.0854 C.ar    1  UNL1        0.0989
     32 N         144.4448  142.5334  160.9135 N.ar    1  UNL1       -0.2104
     33 C         144.5846  141.0750  157.6792 C.3     1  UNL1        0.2542
     34 O         144.8132  142.3994  158.3452 O.3     1  UNL1       -0.4561
@<TRIPOS>BOND
     1    33    34    1
     2    34    22    1
     3    22    23   ar
     4    23    24   ar
     5    24    25   ar
     6    25    26   ar
     7    26    27   ar
     8    27    28   ar
     9    28    29    1
    10    28    30   ar
    11    30    21    1
    12    21    20    1
    13    20     1    1
    14     1     2    1
    15     2     3    1
    16     3     4    1
    17     4     7    1
    18     7     9    1
    19     9    10    1
    20    10    11   ar
    21    11    12   ar
    22    12    13   ar
    23    13    14   ar
    24    14    15   ar
    25    13    16    1
    26    16    17    1
    27    17    18    1
    28    18    19    1
    29     4     5    1
    30     5     6    1
    31    30    31   ar
    32    31    32   ar
    33    32    22   ar
    34    31    25   ar
    35     6     1    1
    36    15    10   ar
    37    19    12    1
    38     7     8    1
@<TRIPOS>MOLECULE
*****
 34 38 0 0 0
SMALL
GASTEIGER

@<TRIPOS>ATOM
      1 N         138.1492  140.0411  161.9083 N.3     1  UNL1       -0.2723
      2 C         137.5411  140.6827  163.1202 C.3     1  UNL1        0.0735
      3 C         137.5623  142.1751  163.2691 C.3     1  UNL1        0.0331
      4 C         138.1917  143.0260  162.2062 C.3     1  UNL1        0.0570
      5 C         138.7999  142.3845  160.9943 C.3     1  UNL1        0.0331
      6 C         138.7786  140.8920  160.8454 C.3     1  UNL1        0.0735
      7 N         138.2130  144.5184  162.3551 N.3     1  UNL1       -0.2934
      8 H         137.4652  144.7601  163.0054 H       1  UNL1        0.1236
      9 C         139.4526  145.2056  162.8461 C.3     1  UNL1        0.1152
     10 C         140.6012  144.3959  163.3706 C.ar    1  UNL1        0.0782
     11 C         141.7818  144.1110  162.4903 C.ar    1  UNL1        0.0562
     12 C         142.9305  143.3013  163.0149 C.ar    1  UNL1        0.1752
     13 C         142.8984  142.7766  164.4198 C.ar    1  UNL1        0.1914
     14 C         141.7178  143.0615  165.3001 C.ar    1  UNL1        0.1384
     15 N         140.5692  143.8712  164.7755 N.ar    1  UNL1       -0.2434
     16 O         144.0470  141.9669  164.9443 O.3     1  UNL1       -0.4668
     17 C         145.2277  141.6819  164.0640 C.3     1  UNL1        0.2527
     18 C         145.2597  142.2067  162.6591 C.3     1  UNL1        0.2526
     19 O         144.1111  143.0164  162.1346 O.3     1  UNL1       -0.4683
     20 C         138.1280  138.5487  161.7594 C.3     1  UNL1        0.0769
     21 C         138.7500  137.6809  162.8130 C.3     1  UNL1        0.0462
     22 C         142.6103  137.8244  160.5050 C.ar    1  UNL1        0.2250
     23 C         143.8747  138.2594  161.1846 C.ar    1  UNL1        0.0593
     24 C         143.8524  138.6466  162.6336 C.ar    1  UNL1        0.0254
     25 C         142.5657  138.5987  163.4030 C.ar    1  UNL1        0.0989
     26 N         142.5433  138.9859  164.8519 N.ar    1  UNL1       -0.2415
     27 C         141.2566  138.9381  165.6213 C.ar    1  UNL1        0.1099
     28 C         139.9921  138.5031  164.9416 C.ar    1  UNL1        0.0743
     29 CL        138.7053  138.4553  165.7110 Cl      1  UNL1       -0.0809
     30 C         140.0144  138.1159  163.4927 C.ar    1  UNL1        0.0105
     31 C         141.3012  138.1637  162.7233 C.ar    1  UNL1        0.0989
     32 N         141.3236  137.7765  161.2743 N.ar    1  UNL1       -0.2104
     33 C         142.8098  138.4889  158.0013 C.3     1  UNL1        0.2542
     34 O         142.6327  137.4372  159.0560 O.3     1  UNL1       -0.4561
@<TRIPOS>BOND
     1    33    34    1
     2    34    22    1
     3    22    23   ar
     4    23    24   ar
     5    24    25   ar
     6    25    26   ar
     7    26    27   ar
     8    27    28   ar
     9    28    29    1
    10    28    30   ar
    11    30    21    1
    12    21    20    1
    13    20     1    1
    14     1     2    1
    15     2     3    1
    16     3     4    1
    17     4     7    1
    18     7     9    1
    19     9    10    1
    20    10    11   ar
    21    11    12   ar
    22    12    13   ar
    23    13    14   ar
    24    14    15   ar
    25    13    16    1
    26    16    17    1
    27    17    18    1
    28    18    19    1
    29     4     5    1
    30     5     6    1
    31    30    31   ar
    32    31    32   ar
    33    32    22   ar
    34    31    25   ar
    35     6     1    1
    36    15    10   ar
    37    19    12    1
    38     7     8    1
@<TRIPOS>MOLECULE
*****
 34 38 0 0 0
SMALL
GASTEIGER

@<TRIPOS>ATOM
      1 N         141.3125  145.1185  162.3192 N.3     1  UNL1       -0.2723
      2 C         142.2468  145.2225  163.4880 C.3     1  UNL1        0.0735
      3 C         143.5528  144.4848  163.4723 C.3     1  UNL1        0.0331
      4 C         143.9245  143.6430  162.2876 C.3     1  UNL1        0.0570
      5 C         142.9902  143.5391  161.1187 C.3     1  UNL1        0.0331
      6 C         141.6842  144.2769  161.1345 C.3     1  UNL1        0.0735
      7 N         145.2304  142.9053  162.2718 N.3     1  UNL1       -0.2934
      8 H         145.9649  143.6046  162.3813 H       1  UNL1        0.1236
      9 C         145.4985  141.8332  163.2861 C.3     1  UNL1        0.1152
     10 C         144.3642  141.0196  163.8350 C.ar    1  UNL1        0.0782
     11 C         143.7708  139.9117  163.0163 C.ar    1  UNL1        0.0562
     12 C         142.6365  139.0980  163.5653 C.ar    1  UNL1        0.1752
     13 C         142.0956  139.3923  164.9330 C.ar    1  UNL1        0.1914
     14 C         142.6890  140.5002  165.7518 C.ar    1  UNL1        0.1384
     15 N         143.8232  141.3139  165.2029 N.ar    1  UNL1       -0.2434
     16 O         140.9613  138.5787  165.4820 O.3     1  UNL1       -0.4668
     17 C         140.3679  137.4707  164.6632 C.3     1  UNL1        0.2527
     18 C         140.9089  137.1765  163.2954 C.3     1  UNL1        0.2526
     19 O         142.0432  137.9901  162.7465 O.3     1  UNL1       -0.4683
     20 C         140.0066  145.8562  162.3349 C.3     1  UNL1        0.0769
     21 C         138.7265  145.1101  162.5687 C.3     1  UNL1        0.0462
     22 C         138.3054  141.6679  159.7011 C.ar    1  UNL1        0.2250
     23 C         138.3416  140.2578  160.2114 C.ar    1  UNL1        0.0593
     24 C         138.5182  139.9952  161.6777 C.ar    1  UNL1        0.0254
     25 C         138.6585  141.1426  162.6336 C.ar    1  UNL1        0.0989
     26 N         138.8351  140.8800  164.0998 N.ar    1  UNL1       -0.2415
     27 C         138.9754  142.0274  165.0557 C.ar    1  UNL1        0.1099
     28 C         138.9392  143.4375  164.5453 C.ar    1  UNL1        0.0743
     29 CL        139.0796  144.5849  165.5012 Cl      1  UNL1       -0.0809
     30 C         138.7627  143.7001  163.0791 C.ar    1  UNL1        0.0105
     31 C         138.6223  142.5526  162.1232 C.ar    1  UNL1        0.0989
     32 N         138.4458  142.8152  160.6570 N.ar    1  UNL1       -0.2104
     33 C         138.0025  140.7829  157.2772 C.3     1  UNL1        0.2542
     34 O         138.1289  141.9305  158.2348 O.3     1  UNL1       -0.4561
@<TRIPOS>BOND
     1    33    34    1
     2    34    22    1
     3    22    23   ar
     4    23    24   ar
     5    24    25   ar
     6    25    26   ar
     7    26    27   ar
     8    27    28   ar
     9    28    29    1
    10    28    30   ar
    11    30    21    1
    12    21    20    1
    13    20     1    1
    14     1     2    1
    15     2     3    1
    16     3     4    1
    17     4     7    1
    18     7     9    1
    19     9    10    1
    20    10    11   ar
    21    11    12   ar
    22    12    13   ar
    23    13    14   ar
    24    14    15   ar
    25    13    16    1
    26    16    17    1
    27    17    18    1
    28    18    19    1
    29     4     5    1
    30     5     6    1
    31    30    31   ar
    32    31    32   ar
    33    32    22   ar
    34    31    25   ar
    35     6     1    1
    36    15    10   ar
    37    19    12    1
    38     7     8    1
@<TRIPOS>MOLECULE
*****
 34 38 0 0 0
SMALL
GASTEIGER

@<TRIPOS>ATOM
      1 N         138.1451  141.0656  164.5048 N.3     1  UNL1       -0.2723
      2 C         137.8232  141.1059  163.0403 C.3     1  UNL1        0.0735
      3 C         137.8044  142.4173  162.3123 C.3     1  UNL1        0.0331
      4 C         138.1076  143.6884  163.0488 C.3     1  UNL1        0.0570
      5 C         138.4295  143.6481  164.5133 C.3     1  UNL1        0.0331
      6 C         138.4482  142.3366  165.2413 C.3     1  UNL1        0.0735
      7 N         138.0888  144.9997  162.3209 N.3     1  UNL1       -0.2934
      8 H         137.3494  145.5608  162.7439 H       1  UNL1        0.1236
      9 C         139.3188  145.8576  162.2891 C.3     1  UNL1        0.1152
     10 C         140.6768  145.2210  162.2635 C.ar    1  UNL1        0.0782
     11 C         141.0582  144.3131  161.1320 C.ar    1  UNL1        0.0562
     12 C         142.4163  143.6764  161.1065 C.ar    1  UNL1        0.1752
     13 C         143.3927  143.9477  162.2123 C.ar    1  UNL1        0.1914
     14 C         143.0112  144.8556  163.3438 C.ar    1  UNL1        0.1384
     15 N         141.6533  145.4922  163.3694 N.ar    1  UNL1       -0.2434
     16 O         144.7507  143.3111  162.1867 O.3     1  UNL1       -0.4668
     17 C         145.1322  142.4032  161.0553 C.3     1  UNL1        0.2527
     18 C         144.1557  142.1319  159.9494 C.3     1  UNL1        0.2526
     19 O         142.7977  142.7685  159.9750 O.3     1  UNL1       -0.4683
     20 C         138.1639  139.7542  165.2327 C.3     1  UNL1        0.0769
     21 C         139.4517  139.0007  165.3876 C.3     1  UNL1        0.0462
     22 C         142.1606  141.9646  167.4192 C.ar    1  UNL1        0.2250
     23 C         143.3997  142.4466  166.7248 C.ar    1  UNL1        0.0593
     24 C         143.7359  141.9407  165.3533 C.ar    1  UNL1        0.0254
     25 C         142.8330  140.9528  164.6762 C.ar    1  UNL1        0.0989
     26 N         143.1692  140.4469  163.3047 N.ar    1  UNL1       -0.2415
     27 C         142.2663  139.4589  162.6275 C.ar    1  UNL1        0.1099
     28 C         141.0271  138.9769  163.3218 C.ar    1  UNL1        0.0743
     29 CL        140.1241  137.9889  162.6446 Cl      1  UNL1       -0.0809
     30 C         140.6908  139.4828  164.6933 C.ar    1  UNL1        0.0105
     31 C         141.5939  140.4708  165.3705 C.ar    1  UNL1        0.0989
     32 N         141.2576  140.9767  166.7420 N.ar    1  UNL1       -0.2104
     33 C         140.5083  143.1458  169.0392 C.3     1  UNL1        0.2542
     34 O         141.8244  142.4705  168.7907 O.3     1  UNL1       -0.4561
@<TRIPOS>BOND
     1    33    34    1
     2    34    22    1
     3    22    23   ar
     4    23    24   ar
     5    24    25   ar
     6    25    26   ar
     7    26    27   ar
     8    27    28   ar
     9    28    29    1
    10    28    30   ar
    11    30    21    1
    12    21    20    1
    13    20     1    1
    14     1     2    1
    15     2     3    1
    16     3     4    1
    17     4     7    1
    18     7     9    1
    19     9    10    1
    20    10    11   ar
    21    11    12   ar
    22    12    13   ar
    23    13    14   ar
    24    14    15   ar
    25    13    16    1
    26    16    17    1
    27    17    18    1
    28    18    19    1
    29     4     5    1
    30     5     6    1
    31    30    31   ar
    32    31    32   ar
    33    32    22   ar
    34    31    25   ar
    35     6     1    1
    36    15    10   ar
    37    19    12    1
    38     7     8    1
