@<TRIPOS>MOLECULE
*****
 31 34 0 0 0
SMALL
GASTEIGER

@<TRIPOS>ATOM
      1 C         141.3342  140.0085  168.1390 C.3     1  UNL1        0.0679
      2 C         140.3982  140.0349  169.3108 C.3     1  UNL1        0.0177
      3 C         141.7976  139.5224  169.4803 C.3     1  UNL1        0.0845
      4 C         140.4376  140.5717  167.0766 C.ar    1  UNL1       -0.0187
      5 C         139.3669  139.7156  166.4675 C.ar    1  UNL1       -0.0019
      6 C         138.4703  140.2788  165.4050 C.ar    1  UNL1        0.0293
      7 C         138.6443  141.6980  164.9516 C.ar    1  UNL1        0.1401
      8 F         137.7476  142.2612  163.8892 F       1  UNL1       -0.2042
      9 C         139.7149  142.5541  165.5607 C.ar    1  UNL1        0.0293
     10 C         140.6116  141.9909  166.6232 C.ar    1  UNL1       -0.0019
     11 C         142.8732  138.9458  170.3526 C.2     1  UNL1        0.2271
     12 O         143.7470  139.8544  171.1656 O.2     1  UNL1       -0.2747
     13 N         143.0749  137.4606  170.4118 N.am    1  UNL1       -0.2693
     14 H         142.5014  136.8643  169.8782 H       1  UNL1        0.1563
     15 C         144.1504  136.8840  171.2840 C.ar    1  UNL1        0.1343
     16 C         144.1640  135.4147  171.5858 C.ar    1  UNL1        0.0368
     17 C         145.2396  134.8382  172.4580 C.ar    1  UNL1        0.0341
     18 C         146.3015  135.7309  173.0285 C.ar    1  UNL1        0.1593
     19 F         147.3770  135.1543  173.9007 F       1  UNL1       -0.2025
     20 C         146.2879  137.2001  172.7267 C.ar    1  UNL1        0.1298
     21 N         145.2124  137.7767  171.8545 N.ar    1  UNL1       -0.2267
     22 C         142.5818  139.7865  167.3363 C.3     1  UNL1        0.2098
     23 O         142.7200  138.5559  166.4899 O.3     1  UNL1       -0.4723
     24 C         144.0744  139.0566  160.6663 C.3     1  UNL1        0.0736
     25 C         143.7358  138.9314  162.1222 C.ar    1  UNL1        0.1394
     26 N         144.5649  139.6443  163.1490 N.ar    1  UNL1       -0.2260
     27 C         144.2263  139.5191  164.6049 C.ar    1  UNL1        0.1382
     28 C         143.0586  138.6811  165.0340 C.ar    1  UNL1        0.1711
     29 C         142.2295  137.9682  164.0072 C.ar    1  UNL1        0.0960
     30 C         141.0617  137.1301  164.4363 C.3     1  UNL1        0.0555
     31 N         142.5681  138.0934  162.5513 N.ar    1  UNL1       -0.2319
@<TRIPOS>BOND
     1    24    25    1
     2    25    26   ar
     3    26    27   ar
     4    27    28   ar
     5    28    23    1
     6    23    22    1
     7     1    22    1
     8     1     4    1
     9     4     5   ar
    10     5     6   ar
    11     6     7   ar
    12     7     8    1
    13     7     9   ar
    14     9    10   ar
    15     1     2    1
    16     2     3    1
    17     3    11    1
    18    11    12    2
    19    11    13   am
    20    13    15    1
    21    15    16   ar
    22    16    17   ar
    23    17    18   ar
    24    18    19    1
    25    18    20   ar
    26    20    21   ar
    27    28    29   ar
    28    29    30    1
    29    29    31   ar
    30    31    25   ar
    31     3     1    1
    32    21    15   ar
    33    10     4   ar
    34    13    14    1
@<TRIPOS>MOLECULE
*****
 31 34 0 0 0
SMALL
GASTEIGER

@<TRIPOS>ATOM
      1 C         141.0878  142.7088  165.7889 C.3     1  UNL1        0.0679
      2 C         142.4017  142.0640  165.4604 C.3     1  UNL1        0.0177
      3 C         141.7851  143.0401  164.5029 C.3     1  UNL1        0.0845
      4 C         140.8137  142.0773  167.1216 C.ar    1  UNL1       -0.0187
      5 C         140.7525  140.5836  167.2454 C.ar    1  UNL1       -0.0019
      6 C         140.4784  139.9522  168.5781 C.ar    1  UNL1        0.0293
      7 C         140.2655  140.8143  169.7870 C.ar    1  UNL1        0.1401
      8 F         139.9914  140.1828  171.1197 F       1  UNL1       -0.2042
      9 C         140.3267  142.3080  169.6631 C.ar    1  UNL1        0.0293
     10 C         140.6008  142.9394  168.3304 C.ar    1  UNL1       -0.0019
     11 C         141.8318  143.7951  163.2075 C.2     1  UNL1        0.2271
     12 O         142.3608  145.1983  163.1757 O.2     1  UNL1       -0.2747
     13 N         141.3493  143.1467  161.9438 N.am    1  UNL1       -0.2693
     14 H         141.0021  142.2257  161.9646 H       1  UNL1        0.1563
     15 C         141.3959  143.9015  160.6484 C.ar    1  UNL1        0.1343
     16 C         140.2810  144.8369  160.2849 C.ar    1  UNL1        0.0368
     17 C         140.3277  145.5917  158.9895 C.ar    1  UNL1        0.0341
     18 C         141.4892  145.4112  158.0576 C.ar    1  UNL1        0.1593
     19 F         141.5358  146.1660  156.7623 F       1  UNL1       -0.2025
     20 C         142.6040  144.4759  158.4212 C.ar    1  UNL1        0.1298
     21 N         142.5574  143.7210  159.7166 N.ar    1  UNL1       -0.2267
     22 C         139.8690  143.5728  165.6545 C.3     1  UNL1        0.2098
     23 O         138.5232  142.9442  165.4463 O.3     1  UNL1       -0.4723
     24 C         137.4445  139.7357  160.4923 C.3     1  UNL1        0.0736
     25 C         137.7142  140.5378  161.7308 C.ar    1  UNL1        0.1394
     26 N         138.0793  139.8436  163.0093 N.ar    1  UNL1       -0.2260
     27 C         138.3490  140.6457  164.2478 C.ar    1  UNL1        0.1382
     28 C         138.2535  142.1421  164.2078 C.ar    1  UNL1        0.1711
     29 C         137.8883  142.8363  162.9293 C.ar    1  UNL1        0.0960
     30 C         137.7928  144.3328  162.8893 C.3     1  UNL1        0.0555
     31 N         137.6186  142.0342  161.6908 N.ar    1  UNL1       -0.2319
@<TRIPOS>BOND
     1    24    25    1
     2    25    26   ar
     3    26    27   ar
     4    27    28   ar
     5    28    23    1
     6    23    22    1
     7     1    22    1
     8     1     4    1
     9     4     5   ar
    10     5     6   ar
    11     6     7   ar
    12     7     8    1
    13     7     9   ar
    14     9    10   ar
    15     1     2    1
    16     2     3    1
    17     3    11    1
    18    11    12    2
    19    11    13   am
    20    13    15    1
    21    15    16   ar
    22    16    17   ar
    23    17    18   ar
    24    18    19    1
    25    18    20   ar
    26    20    21   ar
    27    28    29   ar
    28    29    30    1
    29    29    31   ar
    30    31    25   ar
    31     3     1    1
    32    21    15   ar
    33    10     4   ar
    34    13    14    1
@<TRIPOS>MOLECULE
*****
 31 34 0 0 0
SMALL
GASTEIGER

@<TRIPOS>ATOM
      1 C         142.8135  142.3485  165.2919 C.3     1  UNL1        0.0679
      2 C         144.1026  141.8404  164.7174 C.3     1  UNL1        0.0177
      3 C         143.2540  142.7931  163.9287 C.3     1  UNL1        0.0845
      4 C         142.8217  141.6423  166.6152 C.ar    1  UNL1       -0.0187
      5 C         142.6433  140.1540  166.6721 C.ar    1  UNL1       -0.0019
      6 C         142.6515  139.4477  167.9954 C.ar    1  UNL1        0.0293
      7 C         142.8381  140.2297  169.2617 C.ar    1  UNL1        0.1401
      8 F         142.8463  139.5234  170.5850 F       1  UNL1       -0.2042
      9 C         143.0166  141.7180  169.2048 C.ar    1  UNL1        0.0293
     10 C         143.0084  142.4242  167.8815 C.ar    1  UNL1       -0.0019
     11 C         143.0184  143.5999  162.6863 C.2     1  UNL1        0.2271
     12 O         143.7581  144.8879  162.4767 O.2     1  UNL1       -0.2747
     13 N         142.0429  143.1187  161.6533 N.am    1  UNL1       -0.2693
     14 H         141.5574  142.2734  161.7908 H       1  UNL1        0.1563
     15 C         141.8072  143.9254  160.4109 C.ar    1  UNL1        0.1343
     16 C         140.6312  144.8532  160.3309 C.ar    1  UNL1        0.0368
     17 C         140.3956  145.6599  159.0885 C.ar    1  UNL1        0.0341
     18 C         141.3358  145.5389  157.9260 C.ar    1  UNL1        0.1593
     19 F         141.1002  146.3456  156.6836 F       1  UNL1       -0.2025
     20 C         142.5118  144.6111  158.0061 C.ar    1  UNL1        0.1298
     21 N         142.7474  143.8044  159.2485 N.ar    1  UNL1       -0.2267
     22 C         141.5216  143.1020  165.4068 C.3     1  UNL1        0.2098
     23 O         140.2336  142.3574  165.5986 O.3     1  UNL1       -0.4723
     24 C         137.4315  139.9437  160.8740 C.3     1  UNL1        0.0736
     25 C         138.1320  140.5471  162.0551 C.ar    1  UNL1        0.1394
     26 N         139.3507  139.8831  162.6240 N.ar    1  UNL1       -0.2260
     27 C         140.0513  140.4865  163.8052 C.ar    1  UNL1        0.1382
     28 C         139.5331  141.7540  164.4174 C.ar    1  UNL1        0.1711
     29 C         138.3144  142.4180  163.8485 C.ar    1  UNL1        0.0960
     30 C         137.7961  143.6856  164.4608 C.3     1  UNL1        0.0555
     31 N         137.6138  141.8146  162.6674 N.ar    1  UNL1       -0.2319
@<TRIPOS>BOND
     1    24    25    1
     2    25    26   ar
     3    26    27   ar
     4    27    28   ar
     5    28    23    1
     6    23    22    1
     7     1    22    1
     8     1     4    1
     9     4     5   ar
    10     5     6   ar
    11     6     7   ar
    12     7     8    1
    13     7     9   ar
    14     9    10   ar
    15     1     2    1
    16     2     3    1
    17     3    11    1
    18    11    12    2
    19    11    13   am
    20    13    15    1
    21    15    16   ar
    22    16    17   ar
    23    17    18   ar
    24    18    19    1
    25    18    20   ar
    26    20    21   ar
    27    28    29   ar
    28    29    30    1
    29    29    31   ar
    30    31    25   ar
    31     3     1    1
    32    21    15   ar
    33    10     4   ar
    34    13    14    1
@<TRIPOS>MOLECULE
*****
 31 34 0 0 0
SMALL
GASTEIGER

@<TRIPOS>ATOM
      1 C         140.4026  142.6897  165.4737 C.3     1  UNL1        0.0679
      2 C         138.9856  142.7124  164.9824 C.3     1  UNL1        0.0177
      3 C         140.0835  143.2785  164.1316 C.3     1  UNL1        0.0845
      4 C         140.2059  142.0290  166.8060 C.ar    1  UNL1       -0.0187
      5 C         140.5317  142.7727  168.0673 C.ar    1  UNL1       -0.0019
      6 C         140.3349  142.1121  169.3995 C.ar    1  UNL1        0.0293
      7 C         139.8123  140.7079  169.4705 C.ar    1  UNL1        0.1401
      8 F         139.6155  140.0472  170.8027 F       1  UNL1       -0.2042
      9 C         139.4865  139.9642  168.2091 C.ar    1  UNL1        0.0293
     10 C         139.6833  140.6249  166.8769 C.ar    1  UNL1       -0.0019
     11 C         140.5332  143.9453  162.8654 C.2     1  UNL1        0.2271
     12 O         141.1596  145.3073  162.9165 O.2     1  UNL1       -0.2747
     13 N         140.3565  143.2501  161.5479 N.am    1  UNL1       -0.2693
     14 H         139.9453  142.3562  161.5143 H       1  UNL1        0.1563
     15 C         140.8061  143.9169  160.2818 C.ar    1  UNL1        0.1343
     16 C         142.1003  143.5128  159.6401 C.ar    1  UNL1        0.0368
     17 C         142.5499  144.1796  158.3739 C.ar    1  UNL1        0.0341
     18 C         141.7054  145.2505  157.7494 C.ar    1  UNL1        0.1593
     19 F         142.1551  145.9172  156.4833 F       1  UNL1       -0.2025
     20 C         140.4113  145.6545  158.3912 C.ar    1  UNL1        0.1298
     21 N         139.9616  144.9878  159.6573 N.ar    1  UNL1       -0.2267
     22 C         141.8880  142.8964  165.5024 C.3     1  UNL1        0.2098
     23 O         142.8072  141.7174  165.6243 O.3     1  UNL1       -0.4723
     24 C         143.6892  138.1016  160.9181 C.3     1  UNL1        0.0736
     25 C         143.4687  139.0056  162.0947 C.ar    1  UNL1        0.1394
     26 N         143.4933  140.4941  161.9118 N.ar    1  UNL1       -0.2260
     27 C         143.2728  141.3981  163.0884 C.ar    1  UNL1        0.1382
     28 C         143.0277  140.8134  164.4478 C.ar    1  UNL1        0.1711
     29 C         143.0031  139.3249  164.6306 C.ar    1  UNL1        0.0960
     30 C         142.7579  138.7401  165.9901 C.3     1  UNL1        0.0555
     31 N         143.2236  138.4209  163.4541 N.ar    1  UNL1       -0.2319
@<TRIPOS>BOND
     1    24    25    1
     2    25    26   ar
     3    26    27   ar
     4    27    28   ar
     5    28    23    1
     6    23    22    1
     7     1    22    1
     8     1     4    1
     9     4     5   ar
    10     5     6   ar
    11     6     7   ar
    12     7     8    1
    13     7     9   ar
    14     9    10   ar
    15     1     2    1
    16     2     3    1
    17     3    11    1
    18    11    12    2
    19    11    13   am
    20    13    15    1
    21    15    16   ar
    22    16    17   ar
    23    17    18   ar
    24    18    19    1
    25    18    20   ar
    26    20    21   ar
    27    28    29   ar
    28    29    30    1
    29    29    31   ar
    30    31    25   ar
    31     3     1    1
    32    21    15   ar
    33    10     4   ar
    34    13    14    1
@<TRIPOS>MOLECULE
*****
 31 34 0 0 0
SMALL
GASTEIGER

@<TRIPOS>ATOM
      1 C         141.6691  142.5526  166.2324 C.3     1  UNL1        0.0679
      2 C         143.1565  142.3585  166.2251 C.3     1  UNL1        0.0177
      3 C         142.4746  142.9731  165.0389 C.3     1  UNL1        0.0845
      4 C         141.3407  141.9978  167.5867 C.ar    1  UNL1       -0.0187
      5 C         141.6877  140.5768  167.9194 C.ar    1  UNL1       -0.0019
      6 C         141.3592  140.0220  169.2738 C.ar    1  UNL1        0.0293
      7 C         140.6838  140.8880  170.2954 C.ar    1  UNL1        0.1401
      8 F         140.3553  140.3331  171.6497 F       1  UNL1       -0.2042
      9 C         140.3368  142.3089  169.9627 C.ar    1  UNL1        0.0293
     10 C         140.6653  142.8638  168.6084 C.ar    1  UNL1       -0.0019
     11 C         142.5459  143.5708  163.6649 C.2     1  UNL1        0.2271
     12 O         143.3049  144.8447  163.4395 O.2     1  UNL1       -0.2747
     13 N         141.8580  142.8944  162.5162 N.am    1  UNL1       -0.2693
     14 H         141.3598  142.0582  162.6641 H       1  UNL1        0.1563
     15 C         141.9292  143.4919  161.1423 C.ar    1  UNL1        0.1343
     16 C         142.8866  142.9348  160.1307 C.ar    1  UNL1        0.0368
     17 C         142.9577  143.5325  158.7568 C.ar    1  UNL1        0.0341
     18 C         142.0716  144.6872  158.3943 C.ar    1  UNL1        0.1593
     19 F         142.1429  145.2848  157.0204 F       1  UNL1       -0.2025
     20 C         141.1143  145.2442  159.4058 C.ar    1  UNL1        0.1298
     21 N         141.0431  144.6467  160.7798 N.ar    1  UNL1       -0.2267
     22 C         140.2959  142.9394  165.7693 C.3     1  UNL1        0.2098
     23 O         139.2106  141.9066  165.6955 O.3     1  UNL1       -0.4723
     24 C         137.4405  139.7904  160.3674 C.3     1  UNL1        0.0736
     25 C         137.8830  140.3195  161.6994 C.ar    1  UNL1        0.1394
     26 N         137.2277  141.5386  162.2775 N.ar    1  UNL1       -0.2260
     27 C         137.6703  142.0677  163.6095 C.ar    1  UNL1        0.1382
     28 C         138.7681  141.3775  164.3635 C.ar    1  UNL1        0.1711
     29 C         139.4233  140.1584  163.7854 C.ar    1  UNL1        0.0960
     30 C         140.5212  139.4682  164.5394 C.3     1  UNL1        0.0555
     31 N         138.9808  139.6293  162.4534 N.ar    1  UNL1       -0.2319
@<TRIPOS>BOND
     1    24    25    1
     2    25    26   ar
     3    26    27   ar
     4    27    28   ar
     5    28    23    1
     6    23    22    1
     7     1    22    1
     8     1     4    1
     9     4     5   ar
    10     5     6   ar
    11     6     7   ar
    12     7     8    1
    13     7     9   ar
    14     9    10   ar
    15     1     2    1
    16     2     3    1
    17     3    11    1
    18    11    12    2
    19    11    13   am
    20    13    15    1
    21    15    16   ar
    22    16    17   ar
    23    17    18   ar
    24    18    19    1
    25    18    20   ar
    26    20    21   ar
    27    28    29   ar
    28    29    30    1
    29    29    31   ar
    30    31    25   ar
    31     3     1    1
    32    21    15   ar
    33    10     4   ar
    34    13    14    1
@<TRIPOS>MOLECULE
*****
 31 34 0 0 0
SMALL
GASTEIGER

@<TRIPOS>ATOM
      1 C         140.3167  140.4010  166.1414 C.3     1  UNL1        0.0679
      2 C         139.0034  140.7534  165.5082 C.3     1  UNL1        0.0177
      3 C         140.0094  139.9423  164.7467 C.3     1  UNL1        0.0845
      4 C         140.1474  141.0618  167.4774 C.ar    1  UNL1       -0.0187
      5 C         140.5431  142.4971  167.6596 C.ar    1  UNL1       -0.0019
      6 C         140.3738  143.1579  168.9956 C.ar    1  UNL1        0.0293
      7 C         139.8088  142.3834  170.1491 C.ar    1  UNL1        0.1401
      8 F         139.6394  143.0442  171.4851 F       1  UNL1       -0.2042
      9 C         139.4130  140.9481  169.9669 C.ar    1  UNL1        0.0293
     10 C         139.5823  140.2873  168.6309 C.ar    1  UNL1       -0.0019
     11 C         140.4130  139.2091  163.5018 C.2     1  UNL1        0.2271
     12 O         140.0162  137.7748  163.3141 O.2     1  UNL1       -0.2747
     13 N         141.2134  139.9104  162.4446 N.am    1  UNL1       -0.2693
     14 H         141.4738  140.8518  162.5678 H       1  UNL1        0.1563
     15 C         141.6169  139.1774  161.1997 C.ar    1  UNL1        0.1343
     16 C         142.7666  138.2146  161.2356 C.ar    1  UNL1        0.0368
     17 C         143.1701  137.4815  159.9907 C.ar    1  UNL1        0.0341
     18 C         142.4240  137.7112  158.7099 C.ar    1  UNL1        0.1593
     19 F         142.8275  136.9782  157.4650 F       1  UNL1       -0.2025
     20 C         141.2743  138.6740  158.6741 C.ar    1  UNL1        0.1298
     21 N         140.8708  139.4070  159.9189 N.ar    1  UNL1       -0.2267
     22 C         141.6888  139.8191  166.3107 C.3     1  UNL1        0.2098
     23 O         142.8957  140.7053  166.2206 O.3     1  UNL1       -0.4723
     24 C         144.7410  142.7275  160.8815 C.3     1  UNL1        0.0736
     25 C         144.2797  142.2219  162.2163 C.ar    1  UNL1        0.1394
     26 N         143.2808  143.0088  163.0120 N.ar    1  UNL1       -0.2260
     27 C         142.8195  142.5033  164.3467 C.ar    1  UNL1        0.1382
     28 C         143.3570  141.2108  164.8858 C.ar    1  UNL1        0.1711
     29 C         144.3558  140.4240  164.0902 C.ar    1  UNL1        0.0960
     30 C         144.8934  139.1315  164.6293 C.3     1  UNL1        0.0555
     31 N         144.8172  140.9295  162.7554 N.ar    1  UNL1       -0.2319
@<TRIPOS>BOND
     1    24    25    1
     2    25    26   ar
     3    26    27   ar
     4    27    28   ar
     5    28    23    1
     6    23    22    1
     7     1    22    1
     8     1     4    1
     9     4     5   ar
    10     5     6   ar
    11     6     7   ar
    12     7     8    1
    13     7     9   ar
    14     9    10   ar
    15     1     2    1
    16     2     3    1
    17     3    11    1
    18    11    12    2
    19    11    13   am
    20    13    15    1
    21    15    16   ar
    22    16    17   ar
    23    17    18   ar
    24    18    19    1
    25    18    20   ar
    26    20    21   ar
    27    28    29   ar
    28    29    30    1
    29    29    31   ar
    30    31    25   ar
    31     3     1    1
    32    21    15   ar
    33    10     4   ar
    34    13    14    1
@<TRIPOS>MOLECULE
*****
 31 34 0 0 0
SMALL
GASTEIGER

@<TRIPOS>ATOM
      1 C         139.9663  141.2632  166.1887 C.3     1  UNL1        0.0679
      2 C         140.2574  142.7150  165.9487 C.3     1  UNL1        0.0177
      3 C         139.5984  141.8956  164.8792 C.3     1  UNL1        0.0845
      4 C         140.4996  141.1176  167.5830 C.ar    1  UNL1       -0.0187
      5 C         139.6747  140.4359  168.6342 C.ar    1  UNL1       -0.0019
      6 C         140.2081  140.2902  170.0286 C.ar    1  UNL1        0.0293
      7 C         141.5662  140.8263  170.3718 C.ar    1  UNL1        0.1401
      8 F         142.0996  140.6807  171.7662 F       1  UNL1       -0.2042
      9 C         142.3912  141.5080  169.3207 C.ar    1  UNL1        0.0293
     10 C         141.8578  141.6536  167.9263 C.ar    1  UNL1       -0.0019
     11 C         139.0055  141.7874  163.5055 C.2     1  UNL1        0.2271
     12 O         137.5268  141.9489  163.3120 O.2     1  UNL1       -0.2747
     13 N         139.8913  141.5178  162.3253 N.am    1  UNL1       -0.2693
     14 H         140.8618  141.4119  162.4523 H       1  UNL1        0.1563
     15 C         139.2984  141.4097  160.9518 C.ar    1  UNL1        0.1343
     16 C         139.0140  142.6502  160.1578 C.ar    1  UNL1        0.0368
     17 C         138.4212  142.5420  158.7842 C.ar    1  UNL1        0.0341
     18 C         138.1127  141.1934  158.2045 C.ar    1  UNL1        0.1593
     19 F         137.5199  141.0852  156.8309 F       1  UNL1       -0.2025
     20 C         138.3971  139.9530  158.9985 C.ar    1  UNL1        0.1298
     21 N         138.9900  140.0611  160.3720 N.ar    1  UNL1       -0.2267
     22 C         139.4899  139.8620  165.9443 C.3     1  UNL1        0.2098
     23 O         140.4831  138.7490  165.7869 O.3     1  UNL1       -0.4723
     24 C         142.9139  137.6343  160.4158 C.3     1  UNL1        0.0736
     25 C         142.3062  137.9130  161.7586 C.ar    1  UNL1        0.1394
     26 N         140.8855  137.5191  162.0352 N.ar    1  UNL1       -0.2260
     27 C         140.2778  137.7977  163.3780 C.ar    1  UNL1        0.1382
     28 C         141.0908  138.4703  164.4441 C.ar    1  UNL1        0.1711
     29 C         142.5114  138.8643  164.1675 C.ar    1  UNL1        0.0960
     30 C         143.3244  139.5369  165.2337 C.3     1  UNL1        0.0555
     31 N         143.1191  138.5856  162.8247 N.ar    1  UNL1       -0.2319
@<TRIPOS>BOND
     1    24    25    1
     2    25    26   ar
     3    26    27   ar
     4    27    28   ar
     5    28    23    1
     6    23    22    1
     7     1    22    1
     8     1     4    1
     9     4     5   ar
    10     5     6   ar
    11     6     7   ar
    12     7     8    1
    13     7     9   ar
    14     9    10   ar
    15     1     2    1
    16     2     3    1
    17     3    11    1
    18    11    12    2
    19    11    13   am
    20    13    15    1
    21    15    16   ar
    22    16    17   ar
    23    17    18   ar
    24    18    19    1
    25    18    20   ar
    26    20    21   ar
    27    28    29   ar
    28    29    30    1
    29    29    31   ar
    30    31    25   ar
    31     3     1    1
    32    21    15   ar
    33    10     4   ar
    34    13    14    1
@<TRIPOS>MOLECULE
*****
 31 34 0 0 0
SMALL
GASTEIGER

@<TRIPOS>ATOM
      1 C         139.8566  141.2680  166.0820 C.3     1  UNL1        0.0679
      2 C         140.1568  142.7173  165.8383 C.3     1  UNL1        0.0177
      3 C         139.5037  141.8962  164.7664 C.3     1  UNL1        0.0845
      4 C         140.3764  141.1260  167.4818 C.ar    1  UNL1       -0.0187
      5 C         141.6850  141.7525  167.8631 C.ar    1  UNL1       -0.0019
      6 C         142.2048  141.6105  169.2629 C.ar    1  UNL1        0.0293
      7 C         141.4162  140.8422  170.2815 C.ar    1  UNL1        0.1401
      8 F         141.9361  140.7002  171.6813 F       1  UNL1       -0.2042
      9 C         140.1077  140.2157  169.9003 C.ar    1  UNL1        0.0293
     10 C         139.5878  140.3576  168.5004 C.ar    1  UNL1       -0.0019
     11 C         138.9229  141.7848  163.3878 C.2     1  UNL1        0.2271
     12 O         137.4423  141.9144  163.1850 O.2     1  UNL1       -0.2747
     13 N         139.8227  141.5438  162.2121 N.am    1  UNL1       -0.2693
     14 H         140.7944  141.4587  162.3452 H       1  UNL1        0.1563
     15 C         139.2419  141.4324  160.8336 C.ar    1  UNL1        0.1343
     16 C         138.9570  140.0816  160.2467 C.ar    1  UNL1        0.0368
     17 C         138.3762  139.9703  158.8682 C.ar    1  UNL1        0.0341
     18 C         138.0804  141.2096  158.0765 C.ar    1  UNL1        0.1593
     19 F         137.4997  141.0982  156.6981 F       1  UNL1       -0.2025
     20 C         138.3654  142.5602  158.6635 C.ar    1  UNL1        0.1298
     21 N         138.9461  142.6716  160.0420 N.ar    1  UNL1       -0.2267
     22 C         139.3758  139.8680  165.8394 C.3     1  UNL1        0.2098
     23 O         140.3637  138.7455  165.7220 O.3     1  UNL1       -0.4723
     24 C         143.1163  137.7062  160.4929 C.3     1  UNL1        0.0736
     25 C         142.4282  137.9660  161.8002 C.ar    1  UNL1        0.1394
     26 N         143.1921  138.5644  162.9440 N.ar    1  UNL1       -0.2260
     27 C         142.5040  138.8242  164.2512 C.ar    1  UNL1        0.1382
     28 C         141.0519  138.4856  164.4147 C.ar    1  UNL1        0.1711
     29 C         140.2879  137.8873  163.2710 C.ar    1  UNL1        0.0960
     30 C         138.8358  137.5487  163.4344 C.3     1  UNL1        0.0555
     31 N         140.9761  137.6274  161.9637 N.ar    1  UNL1       -0.2319
@<TRIPOS>BOND
     1    24    25    1
     2    25    26   ar
     3    26    27   ar
     4    27    28   ar
     5    28    23    1
     6    23    22    1
     7     1    22    1
     8     1     4    1
     9     4     5   ar
    10     5     6   ar
    11     6     7   ar
    12     7     8    1
    13     7     9   ar
    14     9    10   ar
    15     1     2    1
    16     2     3    1
    17     3    11    1
    18    11    12    2
    19    11    13   am
    20    13    15    1
    21    15    16   ar
    22    16    17   ar
    23    17    18   ar
    24    18    19    1
    25    18    20   ar
    26    20    21   ar
    27    28    29   ar
    28    29    30    1
    29    29    31   ar
    30    31    25   ar
    31     3     1    1
    32    21    15   ar
    33    10     4   ar
    34    13    14    1
@<TRIPOS>MOLECULE
*****
 31 34 0 0 0
SMALL
GASTEIGER

@<TRIPOS>ATOM
      1 C         139.7317  142.3742  165.4582 C.3     1  UNL1        0.0679
      2 C         138.6045  141.4627  165.0726 C.3     1  UNL1        0.0177
      3 C         139.1169  142.4771  164.0938 C.3     1  UNL1        0.0845
      4 C         139.9856  141.8971  166.8574 C.ar    1  UNL1       -0.0187
      5 C         139.8539  140.4400  167.1884 C.ar    1  UNL1       -0.0019
      6 C         140.1078  139.9628  168.5877 C.ar    1  UNL1        0.0293
      7 C         140.4933  140.9427  169.6558 C.ar    1  UNL1        0.1401
      8 F         140.7472  140.4656  171.0551 F       1  UNL1       -0.2042
      9 C         140.6250  142.3999  169.3248 C.ar    1  UNL1        0.0293
     10 C         140.3711  142.8770  167.9256 C.ar    1  UNL1       -0.0019
     11 C         139.0579  143.1224  162.7409 C.2     1  UNL1        0.2271
     12 O         138.0150  144.1606  162.4499 O.2     1  UNL1       -0.2747
     13 N         140.0417  142.7294  161.6790 N.am    1  UNL1       -0.2693
     14 H         140.7262  142.0480  161.8699 H       1  UNL1        0.1563
     15 C         139.9827  143.3746  160.3261 C.ar    1  UNL1        0.1343
     16 C         139.3477  142.6497  159.1765 C.ar    1  UNL1        0.0368
     17 C         139.2888  143.2950  157.8237 C.ar    1  UNL1        0.0341
     18 C         139.8647  144.6650  157.6204 C.ar    1  UNL1        0.1593
     19 F         139.8057  145.3102  156.2675 F       1  UNL1       -0.2025
     20 C         140.4996  145.3897  158.7700 C.ar    1  UNL1        0.1298
     21 N         140.5586  144.7446  160.1228 N.ar    1  UNL1       -0.2267
     22 C         140.7707  143.4514  165.3577 C.3     1  UNL1        0.2098
     23 O         142.2142  143.0865  165.1766 O.3     1  UNL1       -0.4723
     24 C         144.4692  142.4151  159.6571 C.3     1  UNL1        0.0736
     25 C         143.9055  142.5829  161.0370 C.ar    1  UNL1        0.1394
     26 N         143.7005  143.9575  161.6013 N.ar    1  UNL1       -0.2260
     27 C         143.1367  144.1254  162.9812 C.ar    1  UNL1        0.1382
     28 C         142.7780  142.9187  163.7967 C.ar    1  UNL1        0.1711
     29 C         142.9830  141.5441  163.2324 C.ar    1  UNL1        0.0960
     30 C         142.6243  140.3373  164.0480 C.3     1  UNL1        0.0555
     31 N         143.5468  141.3762  161.8525 N.ar    1  UNL1       -0.2319
@<TRIPOS>BOND
     1    24    25    1
     2    25    26   ar
     3    26    27   ar
     4    27    28   ar
     5    28    23    1
     6    23    22    1
     7     1    22    1
     8     1     4    1
     9     4     5   ar
    10     5     6   ar
    11     6     7   ar
    12     7     8    1
    13     7     9   ar
    14     9    10   ar
    15     1     2    1
    16     2     3    1
    17     3    11    1
    18    11    12    2
    19    11    13   am
    20    13    15    1
    21    15    16   ar
    22    16    17   ar
    23    17    18   ar
    24    18    19    1
    25    18    20   ar
    26    20    21   ar
    27    28    29   ar
    28    29    30    1
    29    29    31   ar
    30    31    25   ar
    31     3     1    1
    32    21    15   ar
    33    10     4   ar
    34    13    14    1
