@<TRIPOS>MOLECULE
*****
 36 39 0 0 0
SMALL
GASTEIGER

@<TRIPOS>ATOM
      1 C         141.8075  142.2282  166.6552 C.ar    1  UNL1        0.0005
      2 C         142.7387  142.0815  165.4884 C.ar    1  UNL1       -0.0003
      3 C         142.3871  142.6964  164.1662 C.ar    1  UNL1       -0.0034
      4 C         141.1043  143.4582  164.0108 C.ar    1  UNL1       -0.0103
      5 C         140.1731  143.6050  165.1775 C.ar    1  UNL1        0.0537
      6 CL        138.8903  144.3668  165.0221 Cl      1  UNL1       -0.0826
      7 C         140.5247  142.9900  166.4998 C.ar    1  UNL1        0.0111
      8 C         140.7527  144.0732  162.6886 C.3     1  UNL1        0.0430
      9 C         141.1147  145.5011  162.4057 C.3     1  UNL1        0.0733
     10 N         140.7632  146.1161  161.0835 N.3     1  UNL1       -0.2972
     11 C         140.0496  145.3032  160.0442 C.3     1  UNL1        0.0689
     12 C         139.6876  143.8753  160.3272 C.3     1  UNL1        0.0218
     13 C         140.0392  143.2603  161.6494 C.3     1  UNL1        0.0293
     14 H         141.6378  146.4296  160.6627 H       1  UNL1        0.1233
     15 C         139.6772  141.8324  161.9323 C.ar    1  UNL1       -0.0159
     16 C         138.3869  141.5090  162.6256 C.ar    1  UNL1        0.0146
     17 C         138.0250  140.0810  162.9085 C.ar    1  UNL1        0.0781
     18 N         138.9532  138.9766  162.4981 N.ar    1  UNL1       -0.2922
     19 C         138.5912  137.5486  162.7810 C.3     1  UNL1        0.1336
     20 C         140.2434  139.3000  161.8048 C.ar    1  UNL1        0.2607
     21 O         141.1717  138.1954  161.3944 O.2     1  UNL1       -0.2670
     22 C         140.6054  140.7279  161.5219 C.ar    1  UNL1        0.0565
     23 C         141.5098  140.3301  168.4041 C.ar    1  UNL1       -0.0205
     24 C         141.8615  139.7152  169.7262 C.ar    1  UNL1       -0.0042
     25 C         142.8624  140.3833  170.6217 C.ar    1  UNL1       -0.0003
     26 C         143.5116  141.6664  170.1950 C.ar    1  UNL1       -0.0000
     27 C         143.1600  142.2814  168.8728 C.ar    1  UNL1       -0.0003
     28 C         142.1591  141.6132  167.9774 C.ar    1  UNL1       -0.0039
     29 C         140.5090  139.6620  167.5086 C.3     1  UNL1        0.0477
     30 C         139.0442  139.9297  167.6897 C.3     1  UNL1        0.0974
     31 C         138.1513  139.9231  170.1296 C.2     1  UNL1        0.4018
     32 O         138.7686  141.2708  170.3591 O.2     1  UNL1       -0.2264
     33 N         138.2891  139.2525  168.7948 N.am    1  UNL1       -0.2703
     34 H         137.8839  138.3680  168.6442 H       1  UNL1        0.1527
     35 C         136.1089  138.5354  170.9377 C.3     1  UNL1        0.2573
     36 O         137.3961  139.2460  171.2347 O.3     1  UNL1       -0.4306
@<TRIPOS>BOND
     1    35    36    1
     2    36    31    1
     3    31    32    2
     4    31    33   am
     5    33    30    1
     6    30    29    1
     7    29    23    1
     8    23    24   ar
     9    24    25   ar
    10    25    26   ar
    11    26    27   ar
    12    27    28   ar
    13    28     1    1
    14     1     2   ar
    15     2     3   ar
    16     3     4   ar
    17     8     4    1
    18     8     9    1
    19     9    10    1
    20    10    11    1
    21    11    12    1
    22    12    13    1
    23    13    15    1
    24    15    16   ar
    25    16    17   ar
    26    17    18   ar
    27    18    19    1
    28    18    20   ar
    29    20    21    2
    30    20    22   ar
    31     4     5   ar
    32     5     6    1
    33     5     7   ar
    34    28    23   ar
    35     7     1   ar
    36    13     8    1
    37    22    15   ar
    38    33    34    1
    39    10    14    1
@<TRIPOS>MOLECULE
*****
 36 39 0 0 0
SMALL
GASTEIGER

@<TRIPOS>ATOM
      1 C         141.3462  140.9105  166.9478 C.ar    1  UNL1        0.0005
      2 C         140.2032  140.2495  166.2360 C.ar    1  UNL1       -0.0003
      3 C         140.3999  139.6919  164.8574 C.ar    1  UNL1       -0.0034
      4 C         141.7396  139.7955  164.1906 C.ar    1  UNL1       -0.0103
      5 C         142.8826  140.4565  164.9024 C.ar    1  UNL1        0.0537
      6 CL        144.2222  140.5600  164.2357 Cl      1  UNL1       -0.0826
      7 C         142.6858  141.0140  166.2811 C.ar    1  UNL1        0.0111
      8 C         141.9364  139.2379  162.8121 C.3     1  UNL1        0.0430
      9 C         142.3956  137.8211  162.6346 C.3     1  UNL1        0.0733
     10 N         142.5924  137.2635  161.2560 N.3     1  UNL1       -0.2972
     11 C         142.3298  138.1228  160.0549 C.3     1  UNL1        0.0689
     12 C         141.8705  139.5398  160.2324 C.3     1  UNL1        0.0218
     13 C         141.6738  140.0973  161.6110 C.3     1  UNL1        0.0293
     14 H         141.9801  136.4515  161.1767 H       1  UNL1        0.1233
     15 C         141.2145  141.5141  161.7885 C.ar    1  UNL1       -0.0159
     16 C         142.2210  142.6128  161.9613 C.ar    1  UNL1        0.0146
     17 C         141.7617  144.0297  162.1387 C.ar    1  UNL1        0.0781
     18 N         140.2958  144.3479  162.1434 N.ar    1  UNL1       -0.2922
     19 C         139.8365  145.7648  162.3209 C.3     1  UNL1        0.1336
     20 C         139.2893  143.2492  161.9706 C.ar    1  UNL1        0.2607
     21 O         137.8234  143.5675  161.9752 O.2     1  UNL1       -0.2670
     22 C         139.7486  141.8324  161.7931 C.ar    1  UNL1        0.0565
     23 C         141.5614  140.6665  169.5254 C.ar    1  UNL1       -0.0205
     24 C         141.3646  141.2240  170.9040 C.ar    1  UNL1       -0.0042
     25 C         140.7559  142.5831  171.0835 C.ar    1  UNL1       -0.0003
     26 C         140.3438  143.3847  169.8844 C.ar    1  UNL1       -0.0000
     27 C         140.5406  142.8271  168.5059 C.ar    1  UNL1       -0.0003
     28 C         141.1494  141.4680  168.3264 C.ar    1  UNL1       -0.0039
     29 C         142.1702  139.3074  169.3459 C.3     1  UNL1        0.0477
     30 C         143.1078  138.7627  170.3824 C.3     1  UNL1        0.0974
     31 C         144.4280  136.7142  171.2829 C.2     1  UNL1        0.4018
     32 O         145.4999  137.6301  171.7948 O.2     1  UNL1       -0.2264
     33 N         143.2319  137.2805  170.5766 N.am    1  UNL1       -0.2703
     34 H         142.5283  136.6794  170.2406 H       1  UNL1        0.1527
     35 C         145.4300  134.6892  172.5655 C.3     1  UNL1        0.2573
     36 O         144.5521  135.2321  171.4771 O.3     1  UNL1       -0.4306
@<TRIPOS>BOND
     1    35    36    1
     2    36    31    1
     3    31    32    2
     4    31    33   am
     5    33    30    1
     6    30    29    1
     7    29    23    1
     8    23    24   ar
     9    24    25   ar
    10    25    26   ar
    11    26    27   ar
    12    27    28   ar
    13    28     1    1
    14     1     2   ar
    15     2     3   ar
    16     3     4   ar
    17     8     4    1
    18     8     9    1
    19     9    10    1
    20    10    11    1
    21    11    12    1
    22    12    13    1
    23    13    15    1
    24    15    16   ar
    25    16    17   ar
    26    17    18   ar
    27    18    19    1
    28    18    20   ar
    29    20    21    2
    30    20    22   ar
    31     4     5   ar
    32     5     6    1
    33     5     7   ar
    34    28    23   ar
    35     7     1   ar
    36    13     8    1
    37    22    15   ar
    38    33    34    1
    39    10    14    1
@<TRIPOS>MOLECULE
*****
 36 39 0 0 0
SMALL
GASTEIGER

@<TRIPOS>ATOM
      1 C         141.7595  142.2154  166.6721 C.ar    1  UNL1        0.0005
      2 C         142.7850  142.2735  165.5790 C.ar    1  UNL1       -0.0003
      3 C         142.4404  142.8988  164.2598 C.ar    1  UNL1       -0.0034
      4 C         141.0703  143.4660  164.0337 C.ar    1  UNL1       -0.0103
      5 C         140.0448  143.4079  165.1268 C.ar    1  UNL1        0.0537
      6 CL        138.6747  143.9752  164.9008 Cl      1  UNL1       -0.0826
      7 C         140.3894  142.7826  166.4461 C.ar    1  UNL1        0.0111
      8 C         140.7258  144.0913  162.7146 C.3     1  UNL1        0.0430
      9 C         141.0935  145.5200  162.4430 C.3     1  UNL1        0.0733
     10 N         140.7489  146.1453  161.1237 N.3     1  UNL1       -0.2972
     11 C         140.0367  145.3420  160.0762 C.3     1  UNL1        0.0689
     12 C         139.6690  143.9133  160.3478 C.3     1  UNL1        0.0218
     13 C         140.0135  143.2880  161.6670 C.3     1  UNL1        0.0293
     14 H         141.6262  146.4589  160.7085 H       1  UNL1        0.1233
     15 C         139.6458  141.8594  161.9386 C.ar    1  UNL1       -0.0159
     16 C         138.2483  141.5113  162.3579 C.ar    1  UNL1        0.0146
     17 C         137.8807  140.0826  162.6295 C.ar    1  UNL1        0.0781
     18 N         138.9105  139.0021  162.4817 N.ar    1  UNL1       -0.2922
     19 C         138.5428  137.5734  162.7533 C.3     1  UNL1        0.1336
     20 C         140.3080  139.3502  162.0624 C.ar    1  UNL1        0.2607
     21 O         141.3378  138.2695  161.9146 O.2     1  UNL1       -0.2670
     22 C         140.6757  140.7788  161.7908 C.ar    1  UNL1        0.0565
     23 C         142.1393  140.0966  168.1270 C.ar    1  UNL1       -0.0205
     24 C         142.4839  139.4714  169.4462 C.ar    1  UNL1       -0.0042
     25 C         142.7932  140.3395  170.6296 C.ar    1  UNL1       -0.0003
     26 C         142.7580  141.8329  170.4940 C.ar    1  UNL1       -0.0000
     27 C         142.4134  142.4582  169.1748 C.ar    1  UNL1       -0.0003
     28 C         142.1041  141.5900  167.9913 C.ar    1  UNL1       -0.0039
     29 C         141.8299  139.2285  166.9435 C.3     1  UNL1        0.0477
     30 C         142.9453  138.6771  166.1058 C.3     1  UNL1        0.0974
     31 C         144.1982  139.1847  163.8871 C.2     1  UNL1        0.4018
     32 O         145.4854  139.3204  164.6450 O.2     1  UNL1       -0.2264
     33 N         142.9281  138.8630  164.6175 N.am    1  UNL1       -0.2703
     34 H         142.0832  138.7739  164.1200 H       1  UNL1        0.1527
     35 C         144.4421  140.7248  161.8090 C.3     1  UNL1        0.2573
     36 O         144.1809  139.3706  162.3988 O.3     1  UNL1       -0.4306
@<TRIPOS>BOND
     1    35    36    1
     2    36    31    1
     3    31    32    2
     4    31    33   am
     5    33    30    1
     6    30    29    1
     7    29    23    1
     8    23    24   ar
     9    24    25   ar
    10    25    26   ar
    11    26    27   ar
    12    27    28   ar
    13    28     1    1
    14     1     2   ar
    15     2     3   ar
    16     3     4   ar
    17     8     4    1
    18     8     9    1
    19     9    10    1
    20    10    11    1
    21    11    12    1
    22    12    13    1
    23    13    15    1
    24    15    16   ar
    25    16    17   ar
    26    17    18   ar
    27    18    19    1
    28    18    20   ar
    29    20    21    2
    30    20    22   ar
    31     4     5   ar
    32     5     6    1
    33     5     7   ar
    34    28    23   ar
    35     7     1   ar
    36    13     8    1
    37    22    15   ar
    38    33    34    1
    39    10    14    1
@<TRIPOS>MOLECULE
*****
 36 39 0 0 0
SMALL
GASTEIGER

@<TRIPOS>ATOM
      1 C         140.3326  139.0786  163.2370 C.ar    1  UNL1        0.0005
      2 C         139.6790  139.5984  161.9911 C.ar    1  UNL1       -0.0003
      3 C         140.5021  139.8565  160.7640 C.ar    1  UNL1       -0.0034
      4 C         141.9790  139.5948  160.7829 C.ar    1  UNL1       -0.0103
      5 C         142.6327  139.0750  162.0289 C.ar    1  UNL1        0.0537
      6 CL        144.1096  138.8133  162.0478 Cl      1  UNL1       -0.0826
      7 C         141.8095  138.8169  163.2560 C.ar    1  UNL1        0.0111
      8 C         142.8022  139.8529  159.5558 C.3     1  UNL1        0.0430
      9 C         142.8814  138.8167  158.4742 C.3     1  UNL1        0.0733
     10 N         143.7046  139.0748  157.2471 N.3     1  UNL1       -0.2972
     11 C         144.4486  140.3692  157.1016 C.3     1  UNL1        0.0689
     12 C         144.3693  141.4054  158.1833 C.3     1  UNL1        0.0218
     13 C         143.5462  141.1473  159.4103 C.3     1  UNL1        0.0293
     14 H         143.0729  139.0070  156.4491 H       1  UNL1        0.1233
     15 C         143.4670  142.1835  160.4919 C.ar    1  UNL1       -0.0159
     16 C         144.6079  142.3561  161.4502 C.ar    1  UNL1        0.0146
     17 C         144.5287  143.3925  162.5319 C.ar    1  UNL1        0.0781
     18 N         143.3085  144.2561  162.6552 N.ar    1  UNL1       -0.2922
     19 C         143.2293  145.2924  163.7368 C.3     1  UNL1        0.1336
     20 C         142.1675  144.0835  161.6969 C.ar    1  UNL1        0.2607
     21 O         140.9473  144.9472  161.8202 O.2     1  UNL1       -0.2670
     22 C         142.2467  143.0472  160.6153 C.ar    1  UNL1        0.0565
     23 C         139.2597  139.9265  165.4461 C.ar    1  UNL1       -0.0205
     24 C         138.4365  139.6683  166.6731 C.ar    1  UNL1       -0.0042
     25 C         137.8630  138.3041  166.9182 C.ar    1  UNL1       -0.0003
     26 C         138.1127  137.1981  165.9363 C.ar    1  UNL1       -0.0000
     27 C         138.9359  137.4562  164.7092 C.ar    1  UNL1       -0.0003
     28 C         139.5094  138.8204  164.4642 C.ar    1  UNL1       -0.0039
     29 C         139.8331  141.2907  165.2010 C.3     1  UNL1        0.0477
     30 C         138.9226  142.4438  164.8990 C.3     1  UNL1        0.0974
     31 C         137.9860  142.7419  162.4941 C.2     1  UNL1        0.4018
     32 O         136.9391  141.7046  162.7732 O.2     1  UNL1       -0.2264
     33 N         138.9778  143.1116  163.5570 N.am    1  UNL1       -0.2703
     34 H         139.6649  143.7924  163.3738 H       1  UNL1        0.1527
     35 C         138.5176  142.6449  159.9528 C.3     1  UNL1        0.2573
     36 O         138.0412  143.4097  161.1520 O.3     1  UNL1       -0.4306
@<TRIPOS>BOND
     1    35    36    1
     2    36    31    1
     3    31    32    2
     4    31    33   am
     5    33    30    1
     6    30    29    1
     7    29    23    1
     8    23    24   ar
     9    24    25   ar
    10    25    26   ar
    11    26    27   ar
    12    27    28   ar
    13    28     1    1
    14     1     2   ar
    15     2     3   ar
    16     3     4   ar
    17     8     4    1
    18     8     9    1
    19     9    10    1
    20    10    11    1
    21    11    12    1
    22    12    13    1
    23    13    15    1
    24    15    16   ar
    25    16    17   ar
    26    17    18   ar
    27    18    19    1
    28    18    20   ar
    29    20    21    2
    30    20    22   ar
    31     4     5   ar
    32     5     6    1
    33     5     7   ar
    34    28    23   ar
    35     7     1   ar
    36    13     8    1
    37    22    15   ar
    38    33    34    1
    39    10    14    1
@<TRIPOS>MOLECULE
*****
 36 39 0 0 0
SMALL
GASTEIGER

@<TRIPOS>ATOM
      1 C         140.3950  142.6376  166.0020 C.ar    1  UNL1        0.0005
      2 C         141.6928  142.4006  165.2882 C.ar    1  UNL1       -0.0003
      3 C         141.8498  142.8227  163.8575 C.ar    1  UNL1       -0.0034
      4 C         140.7089  143.4817  163.1404 C.ar    1  UNL1       -0.0103
      5 C         139.4111  143.7186  163.8542 C.ar    1  UNL1        0.0537
      6 CL        138.2702  144.3776  163.1372 Cl      1  UNL1       -0.0826
      7 C         139.2542  143.2965  165.2850 C.ar    1  UNL1        0.0111
      8 C         140.8659  143.9038  161.7096 C.3     1  UNL1        0.0430
      9 C         141.4955  145.2252  161.3823 C.3     1  UNL1        0.0733
     10 N         141.6525  145.6473  159.9514 N.3     1  UNL1       -0.2972
     11 C         141.1798  144.7479  158.8480 C.3     1  UNL1        0.0689
     12 C         140.5501  143.4264  159.1754 C.3     1  UNL1        0.0218
     13 C         140.3932  143.0043  160.6062 C.3     1  UNL1        0.0293
     14 H         142.6488  145.8031  159.7980 H       1  UNL1        0.1233
     15 C         139.7635  141.6829  160.9335 C.ar    1  UNL1       -0.0159
     16 C         138.2698  141.5457  160.9435 C.ar    1  UNL1        0.0146
     17 C         137.6402  140.2242  161.2709 C.ar    1  UNL1        0.0781
     18 N         138.5042  139.0398  161.5882 N.ar    1  UNL1       -0.2922
     19 C         137.8745  137.7183  161.9155 C.3     1  UNL1        0.1336
     20 C         139.9979  139.1770  161.5781 C.ar    1  UNL1        0.2607
     21 O         140.8619  137.9925  161.8955 O.2     1  UNL1       -0.2670
     22 C         140.6275  140.4984  161.2508 C.ar    1  UNL1        0.0565
     23 C         139.7915  140.8211  167.7589 C.ar    1  UNL1       -0.0205
     24 C         139.6346  140.3991  169.1897 C.ar    1  UNL1       -0.0042
     25 C         139.9243  141.3714  170.2945 C.ar    1  UNL1       -0.0003
     26 C         140.3709  142.7658  169.9685 C.ar    1  UNL1       -0.0000
     27 C         140.5278  143.1878  168.5377 C.ar    1  UNL1       -0.0003
     28 C         140.2381  142.2155  167.4329 C.ar    1  UNL1       -0.0039
     29 C         139.5018  139.8488  166.6540 C.3     1  UNL1        0.0477
     30 C         140.5589  138.8818  166.2096 C.3     1  UNL1        0.0974
     31 C         142.7615  138.8656  164.8319 C.2     1  UNL1        0.4018
     32 O         143.5158  138.4031  166.0431 O.2     1  UNL1       -0.2264
     33 N         141.2830  139.1049  164.9151 N.am    1  UNL1       -0.2703
     34 H         140.7880  139.4085  164.1201 H       1  UNL1        0.1527
     35 C         144.6905  139.9813  163.4961 C.3     1  UNL1        0.2573
     36 O         143.4857  139.0887  163.5374 O.3     1  UNL1       -0.4306
@<TRIPOS>BOND
     1    35    36    1
     2    36    31    1
     3    31    32    2
     4    31    33   am
     5    33    30    1
     6    30    29    1
     7    29    23    1
     8    23    24   ar
     9    24    25   ar
    10    25    26   ar
    11    26    27   ar
    12    27    28   ar
    13    28     1    1
    14     1     2   ar
    15     2     3   ar
    16     3     4   ar
    17     8     4    1
    18     8     9    1
    19     9    10    1
    20    10    11    1
    21    11    12    1
    22    12    13    1
    23    13    15    1
    24    15    16   ar
    25    16    17   ar
    26    17    18   ar
    27    18    19    1
    28    18    20   ar
    29    20    21    2
    30    20    22   ar
    31     4     5   ar
    32     5     6    1
    33     5     7   ar
    34    28    23   ar
    35     7     1   ar
    36    13     8    1
    37    22    15   ar
    38    33    34    1
    39    10    14    1
@<TRIPOS>MOLECULE
*****
 36 39 0 0 0
SMALL
GASTEIGER

@<TRIPOS>ATOM
      1 C         141.4977  141.8901  166.2673 C.ar    1  UNL1        0.0005
      2 C         140.2272  141.7508  165.4821 C.ar    1  UNL1       -0.0003
      3 C         140.0575  142.4963  164.1916 C.ar    1  UNL1       -0.0034
      4 C         141.1583  143.3812  163.6862 C.ar    1  UNL1       -0.0103
      5 C         142.4287  143.5206  164.4714 C.ar    1  UNL1        0.0537
      6 CL        143.5294  144.4054  163.9661 Cl      1  UNL1       -0.0826
      7 C         142.5984  142.7750  165.7620 C.ar    1  UNL1        0.0111
      8 C         140.9885  144.1267  162.3958 C.3     1  UNL1        0.0430
      9 C         140.4139  145.5122  162.4000 C.3     1  UNL1        0.0733
     10 N         140.2441  146.2578  161.1095 N.3     1  UNL1       -0.2972
     11 C         140.6490  145.6178  159.8148 C.3     1  UNL1        0.0689
     12 C         141.2237  144.2321  159.8105 C.3     1  UNL1        0.0218
     13 C         141.3934  143.4866  161.1010 C.3     1  UNL1        0.0293
     14 H         140.7841  147.1190  161.1938 H       1  UNL1        0.1233
     15 C         141.9680  142.1011  161.0967 C.ar    1  UNL1       -0.0159
     16 C         143.4281  141.8939  161.3707 C.ar    1  UNL1        0.0146
     17 C         144.0027  140.5082  161.3664 C.ar    1  UNL1        0.0781
     18 N         143.1172  139.3300  161.0881 N.ar    1  UNL1       -0.2922
     19 C         143.6918  137.9443  161.0838 C.3     1  UNL1        0.1336
     20 C         141.6571  139.5372  160.8141 C.ar    1  UNL1        0.2607
     21 O         140.7716  138.3588  160.5357 O.2     1  UNL1       -0.2670
     22 C         141.0825  140.9227  160.8183 C.ar    1  UNL1        0.0565
     23 C         142.4269  139.8514  167.5826 C.ar    1  UNL1       -0.0205
     24 C         142.5966  139.1059  168.8731 C.ar    1  UNL1       -0.0042
     25 C         142.0067  139.6536  170.1388 C.ar    1  UNL1       -0.0003
     26 C         141.2472  140.9468  170.1140 C.ar    1  UNL1       -0.0000
     27 C         141.0775  141.6923  168.8235 C.ar    1  UNL1       -0.0003
     28 C         141.6674  141.1446  167.5578 C.ar    1  UNL1       -0.0039
     29 C         143.0168  139.3036  166.3169 C.3     1  UNL1        0.0477
     30 C         142.2941  138.2327  165.5547 C.3     1  UNL1        0.0974
     31 C         140.2945  137.6665  163.9955 C.2     1  UNL1        0.4018
     32 O         141.1563  136.6969  163.2424 O.2     1  UNL1       -0.2264
     33 N         140.8634  138.4344  165.1517 N.am    1  UNL1       -0.2703
     34 H         140.2978  139.0708  165.6460 H       1  UNL1        0.1527
     35 C         138.4070  139.2067  163.0927 C.3     1  UNL1        0.2573
     36 O         138.8638  137.8682  163.5925 O.3     1  UNL1       -0.4306
@<TRIPOS>BOND
     1    35    36    1
     2    36    31    1
     3    31    32    2
     4    31    33   am
     5    33    30    1
     6    30    29    1
     7    29    23    1
     8    23    24   ar
     9    24    25   ar
    10    25    26   ar
    11    26    27   ar
    12    27    28   ar
    13    28     1    1
    14     1     2   ar
    15     2     3   ar
    16     3     4   ar
    17     8     4    1
    18     8     9    1
    19     9    10    1
    20    10    11    1
    21    11    12    1
    22    12    13    1
    23    13    15    1
    24    15    16   ar
    25    16    17   ar
    26    17    18   ar
    27    18    19    1
    28    18    20   ar
    29    20    21    2
    30    20    22   ar
    31     4     5   ar
    32     5     6    1
    33     5     7   ar
    34    28    23   ar
    35     7     1   ar
    36    13     8    1
    37    22    15   ar
    38    33    34    1
    39    10    14    1
@<TRIPOS>MOLECULE
*****
 36 39 0 0 0
SMALL
GASTEIGER

@<TRIPOS>ATOM
      1 C         140.5359  143.7736  163.9500 C.ar    1  UNL1        0.0005
      2 C         139.3121  143.7093  164.8149 C.ar    1  UNL1       -0.0003
      3 C         139.4119  143.1887  166.2181 C.ar    1  UNL1       -0.0034
      4 C         140.7356  142.7324  166.7564 C.ar    1  UNL1       -0.0103
      5 C         141.9594  142.7968  165.8915 C.ar    1  UNL1        0.0537
      6 CL        143.2831  142.3406  166.4297 Cl      1  UNL1       -0.0826
      7 C         141.8595  143.3174  164.4882 C.ar    1  UNL1        0.0111
      8 C         140.8355  142.2119  168.1596 C.3     1  UNL1        0.0430
      9 C         141.2220  143.1355  169.2764 C.3     1  UNL1        0.0733
     10 N         141.3219  142.6150  170.6797 N.3     1  UNL1       -0.2972
     11 C         141.0352  141.1707  170.9661 C.3     1  UNL1        0.0689
     12 C         140.6487  140.2470  169.8491 C.3     1  UNL1        0.0218
     13 C         140.5488  140.7676  168.4459 C.3     1  UNL1        0.0293
     14 H         140.6712  143.1618  171.2436 H       1  UNL1        0.1233
     15 C         140.1623  139.8440  167.3291 C.ar    1  UNL1       -0.0159
     16 C         138.7260  139.4545  167.1410 C.ar    1  UNL1        0.0146
     17 C         138.3395  138.5308  166.0241 C.ar    1  UNL1        0.0781
     18 N         139.3892  137.9966  165.0953 N.ar    1  UNL1       -0.2922
     19 C         139.0027  137.0729  163.9784 C.3     1  UNL1        0.1336
     20 C         140.8255  138.3860  165.2835 C.ar    1  UNL1        0.2607
     21 O         141.8753  137.8518  164.3546 O.2     1  UNL1       -0.2670
     22 C         141.2121  139.3097  166.4003 C.ar    1  UNL1        0.0565
     23 C         140.6496  143.3682  161.3862 C.ar    1  UNL1       -0.0205
     24 C         140.5497  143.8889  159.9831 C.ar    1  UNL1       -0.0042
     25 C         140.2361  145.3355  159.7404 C.ar    1  UNL1       -0.0003
     26 C         140.0225  146.2615  160.9009 C.ar    1  UNL1       -0.0000
     27 C         140.1224  145.7409  162.3040 C.ar    1  UNL1       -0.0003
     28 C         140.4360  144.2942  162.5467 C.ar    1  UNL1       -0.0039
     29 C         140.9632  141.9216  161.6289 C.3     1  UNL1        0.0477
     30 C         142.1195  141.2764  160.9242 C.3     1  UNL1        0.0974
     31 C         144.4474  142.0972  161.7350 C.2     1  UNL1        0.4018
     32 O         144.2118  143.4214  161.0711 O.2     1  UNL1       -0.2264
     33 N         143.4013  141.0246  161.6616 N.am    1  UNL1       -0.2703
     34 H         143.5560  140.1554  162.0973 H       1  UNL1        0.1527
     35 C         145.6956  141.3256  163.8790 C.3     1  UNL1        0.2573
     36 O         145.7292  141.8454  162.4724 O.3     1  UNL1       -0.4306
@<TRIPOS>BOND
     1    35    36    1
     2    36    31    1
     3    31    32    2
     4    31    33   am
     5    33    30    1
     6    30    29    1
     7    29    23    1
     8    23    24   ar
     9    24    25   ar
    10    25    26   ar
    11    26    27   ar
    12    27    28   ar
    13    28     1    1
    14     1     2   ar
    15     2     3   ar
    16     3     4   ar
    17     8     4    1
    18     8     9    1
    19     9    10    1
    20    10    11    1
    21    11    12    1
    22    12    13    1
    23    13    15    1
    24    15    16   ar
    25    16    17   ar
    26    17    18   ar
    27    18    19    1
    28    18    20   ar
    29    20    21    2
    30    20    22   ar
    31     4     5   ar
    32     5     6    1
    33     5     7   ar
    34    28    23   ar
    35     7     1   ar
    36    13     8    1
    37    22    15   ar
    38    33    34    1
    39    10    14    1
@<TRIPOS>MOLECULE
*****
 36 39 0 0 0
SMALL
GASTEIGER

@<TRIPOS>ATOM
      1 C         140.8406  141.8858  166.2767 C.ar    1  UNL1        0.0005
      2 C         141.8679  142.9023  165.8748 C.ar    1  UNL1       -0.0003
      3 C         141.7126  143.6573  164.5880 C.ar    1  UNL1       -0.0034
      4 C         140.5301  143.3957  163.7029 C.ar    1  UNL1       -0.0103
      5 C         139.5028  142.3792  164.1048 C.ar    1  UNL1        0.0537
      6 CL        138.3204  142.1176  163.2198 Cl      1  UNL1       -0.0826
      7 C         139.6581  141.6243  165.3917 C.ar    1  UNL1        0.0111
      8 C         140.3749  144.1506  162.4161 C.3     1  UNL1        0.0430
      9 C         139.6389  145.4574  162.3974 C.3     1  UNL1        0.0733
     10 N         139.4836  146.2124  161.1105 N.3     1  UNL1       -0.2972
     11 C         140.0644  145.6605  159.8424 C.3     1  UNL1        0.0689
     12 C         140.8004  144.3536  159.8612 C.3     1  UNL1        0.0218
     13 C         140.9556  143.5987  161.1480 C.3     1  UNL1        0.0293
     14 H         139.9074  147.1291  161.2539 H       1  UNL1        0.1233
     15 C         141.6916  142.2918  161.1667 C.ar    1  UNL1       -0.0159
     16 C         141.0146  141.0428  160.6854 C.ar    1  UNL1        0.0146
     17 C         141.7507  139.7359  160.7041 C.ar    1  UNL1        0.0781
     18 N         143.1637  139.6780  161.2042 N.ar    1  UNL1       -0.2922
     19 C         143.8998  138.3711  161.2229 C.3     1  UNL1        0.1336
     20 C         143.8407  140.9270  161.6855 C.ar    1  UNL1        0.2607
     21 O         145.2537  140.8692  162.1856 O.2     1  UNL1       -0.2670
     22 C         143.1047  142.2339  161.6668 C.ar    1  UNL1        0.0565
     23 C         141.9128  139.9458  167.6319 C.ar    1  UNL1       -0.0205
     24 C         142.0681  139.1909  168.9188 C.ar    1  UNL1       -0.0042
     25 C         141.3064  139.6212  170.1373 C.ar    1  UNL1       -0.0003
     26 C         140.3895  140.8063  170.0689 C.ar    1  UNL1       -0.0000
     27 C         140.2342  141.5612  168.7821 C.ar    1  UNL1       -0.0003
     28 C         140.9959  141.1309  167.5636 C.ar    1  UNL1       -0.0039
     29 C         142.6745  139.5155  166.4134 C.3     1  UNL1        0.0477
     30 C         142.1471  138.4064  165.5521 C.3     1  UNL1        0.0974
     31 C         140.2483  137.6421  163.9520 C.2     1  UNL1        0.4018
     32 O         141.2588  136.9582  163.0796 O.2     1  UNL1       -0.2264
     33 N         140.6925  138.3662  165.1884 N.am    1  UNL1       -0.2703
     34 H         140.0293  138.8151  165.7610 H       1  UNL1        0.1527
     35 C         138.3378  138.1296  162.2602 C.3     1  UNL1        0.2573
     36 O         138.7936  137.6019  163.5883 O.3     1  UNL1       -0.4306
@<TRIPOS>BOND
     1    35    36    1
     2    36    31    1
     3    31    32    2
     4    31    33   am
     5    33    30    1
     6    30    29    1
     7    29    23    1
     8    23    24   ar
     9    24    25   ar
    10    25    26   ar
    11    26    27   ar
    12    27    28   ar
    13    28     1    1
    14     1     2   ar
    15     2     3   ar
    16     3     4   ar
    17     8     4    1
    18     8     9    1
    19     9    10    1
    20    10    11    1
    21    11    12    1
    22    12    13    1
    23    13    15    1
    24    15    16   ar
    25    16    17   ar
    26    17    18   ar
    27    18    19    1
    28    18    20   ar
    29    20    21    2
    30    20    22   ar
    31     4     5   ar
    32     5     6    1
    33     5     7   ar
    34    28    23   ar
    35     7     1   ar
    36    13     8    1
    37    22    15   ar
    38    33    34    1
    39    10    14    1
@<TRIPOS>MOLECULE
*****
 36 39 0 0 0
SMALL
GASTEIGER

@<TRIPOS>ATOM
      1 C         142.4316  143.1330  163.2627 C.ar    1  UNL1        0.0005
      2 C         143.6901  142.4464  163.7041 C.ar    1  UNL1       -0.0003
      3 C         143.8293  141.9741  165.1210 C.ar    1  UNL1       -0.0034
      4 C         142.7101  142.1885  166.0965 C.ar    1  UNL1       -0.0103
      5 C         141.4517  142.8751  165.6550 C.ar    1  UNL1        0.0537
      6 CL        140.3325  143.0894  166.6304 Cl      1  UNL1       -0.0826
      7 C         141.3124  143.3474  164.2381 C.ar    1  UNL1        0.0111
      8 C         142.8494  141.7162  167.5133 C.3     1  UNL1        0.0430
      9 C         143.6500  142.5183  168.4959 C.3     1  UNL1        0.0733
     10 N         143.7894  142.0460  169.9129 N.3     1  UNL1       -0.2972
     11 C         143.1280  140.7716  170.3471 C.3     1  UNL1        0.0689
     12 C         142.3274  139.9695  169.3644 C.3     1  UNL1        0.0218
     13 C         142.1881  140.4418  167.9476 C.3     1  UNL1        0.0293
     14 H         143.4196  142.7873  170.5080 H       1  UNL1        0.1233
     15 C         141.3875  139.6397  166.9649 C.ar    1  UNL1       -0.0159
     16 C         142.0856  138.8063  165.9315 C.ar    1  UNL1        0.0146
     17 C         141.2849  138.0041  164.9489 C.ar    1  UNL1        0.0781
     18 N         139.7861  138.0354  164.9997 N.ar    1  UNL1       -0.2922
     19 C         138.9854  137.2333  164.0170 C.3     1  UNL1        0.1336
     20 C         139.0880  138.8688  166.0331 C.ar    1  UNL1        0.2607
     21 O         137.5891  138.9001  166.0839 O.2     1  UNL1       -0.2670
     22 C         139.8886  139.6709  167.0157 C.ar    1  UNL1        0.0565
     23 C         141.3463  144.7219  161.5169 C.ar    1  UNL1       -0.0205
     24 C         141.2071  145.1941  160.1000 C.ar    1  UNL1       -0.0042
     25 C         142.0140  144.5498  159.0120 C.ar    1  UNL1       -0.0003
     26 C         142.9600  143.4332  159.3409 C.ar    1  UNL1       -0.0000
     27 C         143.0992  142.9610  160.7577 C.ar    1  UNL1       -0.0003
     28 C         142.2924  143.6053  161.8457 C.ar    1  UNL1       -0.0039
     29 C         140.5394  145.3662  162.6049 C.3     1  UNL1        0.0477
     30 C         139.0413  145.3033  162.5651 C.3     1  UNL1        0.0974
     31 C         137.6768  143.1868  163.2045 C.2     1  UNL1        0.4018
     32 O         137.6863  143.6150  164.6421 O.2     1  UNL1       -0.2264
     33 N         138.3544  144.0310  162.1660 N.am    1  UNL1       -0.2703
     34 H         138.3482  143.7500  161.2225 H       1  UNL1        0.1527
     35 C         137.7366  140.6143  162.8464 C.3     1  UNL1        0.2573
     36 O         136.9899  141.9145  162.8054 O.3     1  UNL1       -0.4306
@<TRIPOS>BOND
     1    35    36    1
     2    36    31    1
     3    31    32    2
     4    31    33   am
     5    33    30    1
     6    30    29    1
     7    29    23    1
     8    23    24   ar
     9    24    25   ar
    10    25    26   ar
    11    26    27   ar
    12    27    28   ar
    13    28     1    1
    14     1     2   ar
    15     2     3   ar
    16     3     4   ar
    17     8     4    1
    18     8     9    1
    19     9    10    1
    20    10    11    1
    21    11    12    1
    22    12    13    1
    23    13    15    1
    24    15    16   ar
    25    16    17   ar
    26    17    18   ar
    27    18    19    1
    28    18    20   ar
    29    20    21    2
    30    20    22   ar
    31     4     5   ar
    32     5     6    1
    33     5     7   ar
    34    28    23   ar
    35     7     1   ar
    36    13     8    1
    37    22    15   ar
    38    33    34    1
    39    10    14    1
