@<TRIPOS>MOLECULE
*****
 35 38 0 0 0
SMALL
GASTEIGER

@<TRIPOS>ATOM
      1 C         140.7393  144.2174  161.7765 C.ar    1  UNL1        0.1377
      2 C         140.3369  143.5208  160.5105 C.ar    1  UNL1        0.1397
      3 N         141.3857  143.0588  159.5427 N.ar    1  UNL1       -0.2027
      4 C         142.8369  143.2935  159.8410 C.ar    1  UNL1        0.2367
      5 N         143.2393  143.9901  161.1070 N.ar    1  UNL1       -0.1828
      6 C         142.1905  144.4521  162.0748 C.ar    1  UNL1        0.2339
      7 C         138.8076  144.8789  165.1797 C.3     1  UNL1        0.1109
      8 N         139.8564  144.4170  164.2119 N.am    1  UNL1       -0.2990
      9 C         139.6905  144.6793  162.7443 C.2     1  UNL1        0.2532
     10 O         138.4758  145.4037  162.2446 O.2     1  UNL1       -0.2699
     11 H         140.6537  143.9416  164.5399 H       1  UNL1        0.1498
     12 N         138.8857  143.2862  160.2123 N.pl3   1  UNL1       -0.3178
     13 H         138.2918  144.0490  160.0258 H       1  UNL1        0.1482
     14 C         138.3393  141.8893  160.1983 C.3     1  UNL1        0.0881
     15 C         138.3845  141.0537  161.4432 C.3     1  UNL1        0.0196
     16 C         137.9478  141.6369  162.7543 C.3     1  UNL1        0.0017
     17 C         137.9931  140.8012  163.9991 C.3     1  UNL1        0.0001
     18 C         138.4751  139.3824  163.9328 C.3     1  UNL1        0.0000
     19 C         138.9308  137.9560  164.0211 C.3     1  UNL1        0.0000
     20 C         138.8100  137.5185  165.4508 C.3     1  UNL1        0.0000
     21 C         138.2796  138.6744  166.2461 C.3     1  UNL1        0.0000
     22 C         138.0726  139.8264  165.3079 C.3     1  UNL1        0.0000
     23 C         138.9118  138.7991  162.6217 C.3     1  UNL1        0.0001
     24 C         138.8665  139.6348  161.3768 C.3     1  UNL1        0.0017
     25 C         143.8858  142.8316  158.8732 C.1     1  UNL1        0.1401
     26 N         144.9346  142.3696  157.9055 N.1     1  UNL1       -0.1876
     27 O         142.5930  145.1486  163.3408 O.3     1  UNL1       -0.4600
     28 C         143.7102  144.5986  164.1769 C.3     1  UNL1        0.2071
     29 C         143.7464  143.1371  164.5127 C.3     1  UNL1        0.0466
     30 C         144.8001  142.2553  163.9110 C.3     1  UNL1        0.0211
     31 C         144.8363  140.7937  164.2468 C.3     1  UNL1        0.0723
     32 N         143.8188  140.2141  165.1841 N.3     1  UNL1       -0.2715
     33 C         143.8550  138.7526  165.5199 C.3     1  UNL1        0.0896
     34 C         142.7650  141.0960  165.7858 C.3     1  UNL1        0.0723
     35 C         142.7289  142.5574  165.4501 C.3     1  UNL1        0.0211
@<TRIPOS>BOND
     1     7     8    1
     2     8     9   am
     3     9    10    2
     4     9     1    1
     5     1     2   ar
     6     2    12    1
     7    12    14    1
     8    14    15    1
     9    15    16    1
    10    16    17    1
    11    17    18    1
    12    18    19    1
    13    19    20    1
    14    20    21    1
    15    21    22    1
    16    18    23    1
    17    23    24    1
    18     2     3   ar
    19     3     4   ar
    20     4    25    1
    21    25    26    3
    22     4     5   ar
    23     5     6   ar
    24     6    27    1
    25    27    28    1
    26    28    29    1
    27    29    30    1
    28    30    31    1
    29    31    32    1
    30    32    33    1
    31    32    34    1
    32    34    35    1
    33     6     1   ar
    34    35    29    1
    35    24    15    1
    36    22    18    1
    37     8    11    1
    38    12    13    1
@<TRIPOS>MOLECULE
*****
 35 38 0 0 0
SMALL
GASTEIGER

@<TRIPOS>ATOM
      1 C         138.4301  139.7388  164.4397 C.ar    1  UNL1        0.1377
      2 C         138.7480  138.5734  163.5505 C.ar    1  UNL1        0.1397
      3 N         138.5693  138.6921  162.0659 N.ar    1  UNL1       -0.2027
      4 C         138.0729  139.9763  161.4706 C.ar    1  UNL1        0.2367
      5 N         137.7550  141.1418  162.3598 N.ar    1  UNL1       -0.1828
      6 C         137.9337  141.0230  163.8444 C.ar    1  UNL1        0.2339
      7 C         139.6954  140.4504  168.1334 C.3     1  UNL1        0.1109
      8 N         139.5168  140.5692  166.6488 N.am    1  UNL1       -0.2990
      9 C         138.6088  139.6201  165.9243 C.2     1  UNL1        0.2532
     10 O         137.8794  138.5523  166.6844 O.2     1  UNL1       -0.2699
     11 H         139.9955  141.2700  166.1499 H       1  UNL1        0.1498
     12 N         139.2444  137.2892  164.1459 N.pl3   1  UNL1       -0.3178
     13 H         138.6167  136.6825  164.6009 H       1  UNL1        0.1482
     14 C         140.6973  136.9296  164.0479 C.3     1  UNL1        0.0881
     15 C         141.7291  138.0089  163.9045 C.3     1  UNL1        0.0196
     16 C         142.3006  138.3256  162.5542 C.3     1  UNL1        0.0017
     17 C         143.3324  139.4049  162.4109 C.3     1  UNL1        0.0001
     18 C         143.7927  140.1675  163.6177 C.3     1  UNL1        0.0000
     19 C         144.3473  141.0101  164.7278 C.3     1  UNL1        0.0000
     20 C         145.3484  141.9570  164.1352 C.3     1  UNL1        0.0000
     21 C         145.4125  141.6996  162.6588 C.3     1  UNL1        0.0000
     22 C         144.4510  140.5936  162.3390 C.3     1  UNL1        0.0000
     23 C         143.2213  139.8508  164.9679 C.3     1  UNL1        0.0001
     24 C         142.1895  138.7715  165.1113 C.3     1  UNL1        0.0017
     25 C         137.8942  140.0951  159.9860 C.1     1  UNL1        0.1401
     26 N         137.7156  140.2138  158.5014 N.1     1  UNL1       -0.1876
     27 O         137.6158  142.1885  164.7336 O.3     1  UNL1       -0.4600
     28 C         137.9503  143.5822  164.2915 C.3     1  UNL1        0.2071
     29 C         139.3789  143.9695  164.0485 C.3     1  UNL1        0.0466
     30 C         140.4781  143.3062  164.8241 C.3     1  UNL1        0.0211
     31 C         141.9068  143.6935  164.5811 C.3     1  UNL1        0.0723
     32 N         142.2362  144.7440  163.5625 N.3     1  UNL1       -0.2715
     33 C         143.6648  145.1313  163.3195 C.3     1  UNL1        0.0896
     34 C         141.1369  145.4075  162.7868 C.3     1  UNL1        0.0723
     35 C         139.7083  145.0202  163.0298 C.3     1  UNL1        0.0211
@<TRIPOS>BOND
     1     7     8    1
     2     8     9   am
     3     9    10    2
     4     9     1    1
     5     1     2   ar
     6     2    12    1
     7    12    14    1
     8    14    15    1
     9    15    16    1
    10    16    17    1
    11    17    18    1
    12    18    19    1
    13    19    20    1
    14    20    21    1
    15    21    22    1
    16    18    23    1
    17    23    24    1
    18     2     3   ar
    19     3     4   ar
    20     4    25    1
    21    25    26    3
    22     4     5   ar
    23     5     6   ar
    24     6    27    1
    25    27    28    1
    26    28    29    1
    27    29    30    1
    28    30    31    1
    29    31    32    1
    30    32    33    1
    31    32    34    1
    32    34    35    1
    33     6     1   ar
    34    35    29    1
    35    24    15    1
    36    22    18    1
    37     8    11    1
    38    12    13    1
@<TRIPOS>MOLECULE
*****
 35 38 0 0 0
SMALL
GASTEIGER

@<TRIPOS>ATOM
      1 C         143.1971  138.6506  164.5567 C.ar    1  UNL1        0.1377
      2 C         142.0570  137.9103  163.9227 C.ar    1  UNL1        0.1397
      3 N         141.9917  137.7689  162.4308 N.ar    1  UNL1       -0.2027
      4 C         143.0666  138.3679  161.5730 C.ar    1  UNL1        0.2367
      5 N         144.2068  139.1083  162.2070 N.ar    1  UNL1       -0.1828
      6 C         144.2720  139.2497  163.6989 C.ar    1  UNL1        0.2339
      7 C         142.5770  140.0385  168.2227 C.3     1  UNL1        0.1109
      8 N         142.5117  139.8971  166.7309 N.am    1  UNL1       -0.2990
      9 C         143.2624  138.7920  166.0486 C.2     1  UNL1        0.2532
     10 O         144.0783  137.8284  166.8583 O.2     1  UNL1       -0.2699
     11 H         141.9762  140.5296  166.1994 H       1  UNL1        0.1498
     12 N         140.9821  137.3113  164.7805 N.pl3   1  UNL1       -0.3178
     13 H         141.2165  136.6583  165.4790 H       1  UNL1        0.1482
     14 C         139.5502  137.7074  164.5742 C.3     1  UNL1        0.0881
     15 C         139.1866  139.1549  164.4238 C.3     1  UNL1        0.0196
     16 C         138.5218  139.6348  163.1677 C.3     1  UNL1        0.0017
     17 C         138.1583  141.0823  163.0175 C.3     1  UNL1        0.0001
     18 C         138.4595  142.0500  164.1233 C.3     1  UNL1        0.0000
     19 C         138.6971  143.1286  165.1382 C.3     1  UNL1        0.0000
     20 C         138.1790  144.4182  164.5738 C.3     1  UNL1        0.0000
     21 C         137.6212  144.1366  163.2101 C.3     1  UNL1        0.0000
     22 C         137.7946  142.6729  162.9317 C.3     1  UNL1        0.0000
     23 C         139.1243  141.5701  165.3794 C.3     1  UNL1        0.0001
     24 C         139.4879  140.1226  165.5297 C.3     1  UNL1        0.0017
     25 C         143.0014  138.2266  160.0810 C.1     1  UNL1        0.1401
     26 N         142.9363  138.0852  158.5891 N.1     1  UNL1       -0.1876
     27 O         145.4121  139.9900  164.3329 O.3     1  UNL1       -0.4600
     28 C         145.7264  141.3926  163.9043 C.3     1  UNL1        0.2071
     29 C         144.6153  142.3753  163.6809 C.3     1  UNL1        0.0466
     30 C         143.6249  142.6487  164.7737 C.3     1  UNL1        0.0211
     31 C         142.5138  143.6315  164.5504 C.3     1  UNL1        0.0723
     32 N         142.3932  144.3407  163.2343 N.3     1  UNL1       -0.2715
     33 C         141.2822  145.3234  163.0109 C.3     1  UNL1        0.0896
     34 C         143.3837  144.0674  162.1413 C.3     1  UNL1        0.0723
     35 C         144.4947  143.0847  162.3647 C.3     1  UNL1        0.0211
@<TRIPOS>BOND
     1     7     8    1
     2     8     9   am
     3     9    10    2
     4     9     1    1
     5     1     2   ar
     6     2    12    1
     7    12    14    1
     8    14    15    1
     9    15    16    1
    10    16    17    1
    11    17    18    1
    12    18    19    1
    13    19    20    1
    14    20    21    1
    15    21    22    1
    16    18    23    1
    17    23    24    1
    18     2     3   ar
    19     3     4   ar
    20     4    25    1
    21    25    26    3
    22     4     5   ar
    23     5     6   ar
    24     6    27    1
    25    27    28    1
    26    28    29    1
    27    29    30    1
    28    30    31    1
    29    31    32    1
    30    32    33    1
    31    32    34    1
    32    34    35    1
    33     6     1   ar
    34    35    29    1
    35    24    15    1
    36    22    18    1
    37     8    11    1
    38    12    13    1
@<TRIPOS>MOLECULE
*****
 35 38 0 0 0
SMALL
GASTEIGER

@<TRIPOS>ATOM
      1 C         142.9682  138.4755  164.4836 C.ar    1  UNL1        0.1377
      2 C         144.1090  138.9421  163.6287 C.ar    1  UNL1        0.1397
      3 N         144.0646  138.7397  162.1431 N.ar    1  UNL1       -0.2027
      4 C         142.8794  138.0707  161.5124 C.ar    1  UNL1        0.2367
      5 N         141.7386  137.6041  162.3673 N.ar    1  UNL1       -0.1828
      6 C         141.7830  137.8064  163.8529 C.ar    1  UNL1        0.2339
      7 C         141.9934  139.6917  168.1334 C.3     1  UNL1        0.1109
      8 N         141.9491  139.4894  166.6478 N.am    1  UNL1       -0.2990
      9 C         143.0126  138.6778  165.9692 C.2     1  UNL1        0.2532
     10 O         144.1204  138.0686  166.7764 O.2     1  UNL1       -0.2699
     11 H         141.2219  139.8892  166.1180 H       1  UNL1        0.1498
     12 N         145.2942  139.6111  164.2595 N.pl3   1  UNL1       -0.3178
     13 H         145.8950  139.0973  164.8461 H       1  UNL1        0.1482
     14 C         145.5637  141.0630  163.9963 C.3     1  UNL1        0.0881
     15 C         144.4208  142.0154  163.8048 C.3     1  UNL1        0.0196
     16 C         144.2560  142.7366  162.4999 C.3     1  UNL1        0.0017
     17 C         143.1130  143.6889  162.3084 C.3     1  UNL1        0.0001
     18 C         142.1348  143.9201  163.4218 C.3     1  UNL1        0.0000
     19 C         141.0831  144.2509  164.4388 C.3     1  UNL1        0.0000
     20 C         140.1412  145.2441  163.8252 C.3     1  UNL1        0.0000
     21 C         140.6108  145.5270  162.4290 C.3     1  UNL1        0.0000
     22 C         141.8430  144.7087  162.1797 C.3     1  UNL1        0.0000
     23 C         142.2996  143.1989  164.7267 C.3     1  UNL1        0.0001
     24 C         143.4426  142.2465  164.9182 C.3     1  UNL1        0.0017
     25 C         142.8350  137.8683  160.0267 C.1     1  UNL1        0.1401
     26 N         142.7905  137.6660  158.5411 N.1     1  UNL1       -0.1876
     27 O         140.6422  137.3398  164.7077 O.3     1  UNL1       -0.4600
     28 C         139.2289  137.6168  164.2889 C.3     1  UNL1        0.2071
     29 C         138.8282  139.0002  163.8701 C.3     1  UNL1        0.0466
     30 C         138.2912  139.2402  162.4902 C.3     1  UNL1        0.0211
     31 C         137.8905  140.6237  162.0714 C.3     1  UNL1        0.0723
     32 N         138.0267  141.7672  163.0324 N.3     1  UNL1       -0.2715
     33 C         137.6260  143.1507  162.6137 C.3     1  UNL1        0.0896
     34 C         138.5636  141.5273  164.4124 C.3     1  UNL1        0.0723
     35 C         138.9644  140.1439  164.8312 C.3     1  UNL1        0.0211
@<TRIPOS>BOND
     1     7     8    1
     2     8     9   am
     3     9    10    2
     4     9     1    1
     5     1     2   ar
     6     2    12    1
     7    12    14    1
     8    14    15    1
     9    15    16    1
    10    16    17    1
    11    17    18    1
    12    18    19    1
    13    19    20    1
    14    20    21    1
    15    21    22    1
    16    18    23    1
    17    23    24    1
    18     2     3   ar
    19     3     4   ar
    20     4    25    1
    21    25    26    3
    22     4     5   ar
    23     5     6   ar
    24     6    27    1
    25    27    28    1
    26    28    29    1
    27    29    30    1
    28    30    31    1
    29    31    32    1
    30    32    33    1
    31    32    34    1
    32    34    35    1
    33     6     1   ar
    34    35    29    1
    35    24    15    1
    36    22    18    1
    37     8    11    1
    38    12    13    1
@<TRIPOS>MOLECULE
*****
 35 38 0 0 0
SMALL
GASTEIGER

@<TRIPOS>ATOM
      1 C         142.1748  144.2401  162.4718 C.ar    1  UNL1        0.1377
      2 C         140.8684  144.9761  162.4346 C.ar    1  UNL1        0.1397
      3 N         140.3051  145.4383  161.1235 N.ar    1  UNL1       -0.2027
      4 C         141.0484  145.1646  159.8496 C.ar    1  UNL1        0.2367
      5 N         142.3549  144.4286  159.8869 N.ar    1  UNL1       -0.1828
      6 C         142.9181  143.9663  161.1980 C.ar    1  UNL1        0.2339
      7 C         144.6624  143.7725  165.5286 C.3     1  UNL1        0.1109
      8 N         144.0992  144.2348  164.2175 N.am    1  UNL1       -0.2990
      9 C         142.7381  143.7778  163.7830 C.2     1  UNL1        0.2532
     10 O         141.9404  142.8585  164.6596 O.2     1  UNL1       -0.2699
     11 H         144.6228  144.8382  163.6422 H       1  UNL1        0.1498
     12 N         140.1252  145.2498  163.7085 N.pl3   1  UNL1       -0.3178
     13 H         140.4699  145.9160  164.3461 H       1  UNL1        0.1482
     14 C         138.8567  144.5085  164.0107 C.3     1  UNL1        0.0881
     15 C         138.8493  143.0085  164.0228 C.3     1  UNL1        0.0196
     16 C         138.7901  142.2483  162.7311 C.3     1  UNL1        0.0017
     17 C         138.7827  140.7483  162.7433 C.3     1  UNL1        0.0001
     18 C         138.8345  140.0086  164.0472 C.3     1  UNL1        0.0000
     19 C         138.8819  139.1366  165.2668 C.3     1  UNL1        0.0000
     20 C         138.8551  137.7065  164.8152 C.3     1  UNL1        0.0000
     21 C         138.7910  137.6946  163.3166 C.3     1  UNL1        0.0000
     22 C         138.7783  139.1174  162.8420 C.3     1  UNL1        0.0000
     23 C         138.8936  140.7689  165.3389 C.3     1  UNL1        0.0001
     24 C         138.9010  142.2688  165.3267 C.3     1  UNL1        0.0017
     25 C         140.4852  145.6268  158.5384 C.1     1  UNL1        0.1401
     26 N         139.9220  146.0890  157.2273 N.1     1  UNL1       -0.1876
     27 O         144.2246  143.2303  161.2353 O.3     1  UNL1       -0.4600
     28 C         144.2483  141.7368  161.0987 C.3     1  UNL1        0.2071
     29 C         144.0036  140.8701  162.2982 C.3     1  UNL1        0.0466
     30 C         142.6760  140.1954  162.4778 C.3     1  UNL1        0.0211
     31 C         142.4314  139.3286  163.6774 C.3     1  UNL1        0.0723
     32 N         143.5143  139.1364  164.6973 N.3     1  UNL1       -0.2715
     33 C         143.2697  138.2696  165.8968 C.3     1  UNL1        0.0896
     34 C         144.8420  139.8111  164.5177 C.3     1  UNL1        0.0723
     35 C         145.0866  140.6779  163.3182 C.3     1  UNL1        0.0211
@<TRIPOS>BOND
     1     7     8    1
     2     8     9   am
     3     9    10    2
     4     9     1    1
     5     1     2   ar
     6     2    12    1
     7    12    14    1
     8    14    15    1
     9    15    16    1
    10    16    17    1
    11    17    18    1
    12    18    19    1
    13    19    20    1
    14    20    21    1
    15    21    22    1
    16    18    23    1
    17    23    24    1
    18     2     3   ar
    19     3     4   ar
    20     4    25    1
    21    25    26    3
    22     4     5   ar
    23     5     6   ar
    24     6    27    1
    25    27    28    1
    26    28    29    1
    27    29    30    1
    28    30    31    1
    29    31    32    1
    30    32    33    1
    31    32    34    1
    32    34    35    1
    33     6     1   ar
    34    35    29    1
    35    24    15    1
    36    22    18    1
    37     8    11    1
    38    12    13    1
@<TRIPOS>MOLECULE
*****
 35 38 0 0 0
SMALL
GASTEIGER

@<TRIPOS>ATOM
      1 C         139.5547  140.1812  162.9007 C.ar    1  UNL1        0.1377
      2 C         138.8446  141.0991  163.8510 C.ar    1  UNL1        0.1397
      3 N         138.2426  140.5534  165.1119 N.ar    1  UNL1       -0.2027
      4 C         138.3508  139.0898  165.4224 C.ar    1  UNL1        0.2367
      5 N         139.0610  138.1720  164.4720 N.ar    1  UNL1       -0.1828
      6 C         139.6630  138.7177  163.2111 C.ar    1  UNL1        0.2339
      7 C         140.4017  140.6667  159.0539 C.3     1  UNL1        0.1109
      8 N         139.7997  140.1210  160.3148 N.am    1  UNL1       -0.2990
      9 C         140.1567  140.7269  161.6398 C.2     1  UNL1        0.2532
     10 O         141.1157  141.8785  161.7038 O.2     1  UNL1       -0.2699
     11 H         139.1703  139.3651  160.2727 H       1  UNL1        0.1498
     12 N         138.7364  142.5626  163.5405 N.pl3   1  UNL1       -0.3178
     13 H         138.0205  142.8886  162.9484 H       1  UNL1        0.1482
     14 C         139.7189  143.5293  164.1321 C.3     1  UNL1        0.0881
     15 C         140.4075  143.2026  165.4240 C.3     1  UNL1        0.0196
     16 C         141.7979  142.6399  165.4115 C.3     1  UNL1        0.0017
     17 C         142.4865  142.3132  166.7034 C.3     1  UNL1        0.0001
     18 C         141.7847  142.5491  168.0079 C.3     1  UNL1        0.0000
     19 C         141.2122  142.7301  169.3825 C.3     1  UNL1        0.0000
     20 C         142.2403  142.2769  170.3762 C.3     1  UNL1        0.0000
     21 C         143.4483  141.8158  169.6158 C.3     1  UNL1        0.0000
     22 C         143.1667  141.9840  168.1521 C.3     1  UNL1        0.0000
     23 C         140.3943  143.1118  168.0205 C.3     1  UNL1        0.0001
     24 C         139.7057  143.4385  166.7285 C.3     1  UNL1        0.0017
     25 C         137.7489  138.5441  166.6833 C.1     1  UNL1        0.1401
     26 N         137.1469  137.9984  167.9442 N.1     1  UNL1       -0.1876
     27 O         140.3731  137.7998  162.2608 O.3     1  UNL1       -0.4600
     28 C         141.8023  137.4199  162.5118 C.3     1  UNL1        0.2071
     29 C         142.8149  138.4794  162.8312 C.3     1  UNL1        0.0466
     30 C         143.4472  139.2704  161.7247 C.3     1  UNL1        0.0211
     31 C         144.4599  140.3300  162.0441 C.3     1  UNL1        0.0723
     32 N         144.8404  140.5983  163.4700 N.3     1  UNL1       -0.2715
     33 C         145.8531  141.6577  163.7894 C.3     1  UNL1        0.0896
     34 C         144.2081  139.8072  164.5766 C.3     1  UNL1        0.0723
     35 C         143.1954  138.7478  164.2572 C.3     1  UNL1        0.0211
@<TRIPOS>BOND
     1     7     8    1
     2     8     9   am
     3     9    10    2
     4     9     1    1
     5     1     2   ar
     6     2    12    1
     7    12    14    1
     8    14    15    1
     9    15    16    1
    10    16    17    1
    11    17    18    1
    12    18    19    1
    13    19    20    1
    14    20    21    1
    15    21    22    1
    16    18    23    1
    17    23    24    1
    18     2     3   ar
    19     3     4   ar
    20     4    25    1
    21    25    26    3
    22     4     5   ar
    23     5     6   ar
    24     6    27    1
    25    27    28    1
    26    28    29    1
    27    29    30    1
    28    30    31    1
    29    31    32    1
    30    32    33    1
    31    32    34    1
    32    34    35    1
    33     6     1   ar
    34    35    29    1
    35    24    15    1
    36    22    18    1
    37     8    11    1
    38    12    13    1
@<TRIPOS>MOLECULE
*****
 35 38 0 0 0
SMALL
GASTEIGER

@<TRIPOS>ATOM
      1 C         140.9571  142.8341  160.8951 C.ar    1  UNL1        0.1377
      2 C         139.6353  143.5239  160.7307 C.ar    1  UNL1        0.1397
      3 N         138.6060  142.9598  159.7967 N.ar    1  UNL1       -0.2027
      4 C         138.8986  141.7059  159.0271 C.ar    1  UNL1        0.2367
      5 N         140.2204  141.0162  159.1914 N.ar    1  UNL1       -0.1828
      6 C         141.2497  141.5803  160.1254 C.ar    1  UNL1        0.2339
      7 C         143.4825  143.1572  163.9395 C.3     1  UNL1        0.1109
      8 N         142.4532  142.5931  163.0056 N.am    1  UNL1       -0.2990
      9 C         141.9864  143.3982  161.8290 C.2     1  UNL1        0.2532
     10 O         142.5490  144.7674  161.5866 O.2     1  UNL1       -0.2699
     11 H         142.0839  141.6945  163.1647 H       1  UNL1        0.1498
     12 N         139.3427  144.7777  161.5004 N.pl3   1  UNL1       -0.3178
     13 H         139.6885  145.6427  161.1820 H       1  UNL1        0.1482
     14 C         138.5234  144.7135  162.7551 C.3     1  UNL1        0.0881
     15 C         138.6660  143.5451  163.6850 C.3     1  UNL1        0.0196
     16 C         137.8536  142.3043  163.4606 C.3     1  UNL1        0.0017
     17 C         137.9963  141.1360  164.3905 C.3     1  UNL1        0.0001
     18 C         138.9513  141.2086  165.5449 C.3     1  UNL1        0.0000
     19 C         139.8607  141.1354  166.7356 C.3     1  UNL1        0.0000
     20 C         139.6810  139.7899  167.3739 C.3     1  UNL1        0.0000
     21 C         138.6606  139.0316  166.5779 C.3     1  UNL1        0.0000
     22 C         138.2096  139.9084  165.4474 C.3     1  UNL1        0.0000
     23 C         139.7637  142.4494  165.7694 C.3     1  UNL1        0.0001
     24 C         139.6210  143.6177  164.8394 C.3     1  UNL1        0.0017
     25 C         137.8693  141.1417  158.0931 C.1     1  UNL1        0.1401
     26 N         136.8400  140.5776  157.1591 N.1     1  UNL1       -0.1876
     27 O         142.5715  140.8905  160.2898 O.3     1  UNL1       -0.4600
     28 C         142.6254  139.4903  160.8248 C.3     1  UNL1        0.2071
     29 C         142.8122  139.2556  162.2945 C.3     1  UNL1        0.0466
     30 C         144.1645  139.4382  162.9172 C.3     1  UNL1        0.0211
     31 C         144.3513  139.2035  164.3870 C.3     1  UNL1        0.0723
     32 N         143.1858  138.7863  165.2339 N.3     1  UNL1       -0.2715
     33 C         143.3726  138.5516  166.7036 C.3     1  UNL1        0.0896
     34 C         141.8334  138.6037  164.6112 C.3     1  UNL1        0.0723
     35 C         141.6466  138.8384  163.1415 C.3     1  UNL1        0.0211
@<TRIPOS>BOND
     1     7     8    1
     2     8     9   am
     3     9    10    2
     4     9     1    1
     5     1     2   ar
     6     2    12    1
     7    12    14    1
     8    14    15    1
     9    15    16    1
    10    16    17    1
    11    17    18    1
    12    18    19    1
    13    19    20    1
    14    20    21    1
    15    21    22    1
    16    18    23    1
    17    23    24    1
    18     2     3   ar
    19     3     4   ar
    20     4    25    1
    21    25    26    3
    22     4     5   ar
    23     5     6   ar
    24     6    27    1
    25    27    28    1
    26    28    29    1
    27    29    30    1
    28    30    31    1
    29    31    32    1
    30    32    33    1
    31    32    34    1
    32    34    35    1
    33     6     1   ar
    34    35    29    1
    35    24    15    1
    36    22    18    1
    37     8    11    1
    38    12    13    1
@<TRIPOS>MOLECULE
*****
 35 38 0 0 0
SMALL
GASTEIGER

@<TRIPOS>ATOM
      1 C         144.4362  142.9675  163.9788 C.ar    1  UNL1        0.1377
      2 C         144.0856  144.1013  163.0614 C.ar    1  UNL1        0.1397
      3 N         144.1765  143.9192  161.5753 N.ar    1  UNL1       -0.2027
      4 C         144.6180  142.6032  161.0066 C.ar    1  UNL1        0.2367
      5 N         144.9685  141.4694  161.9240 N.ar    1  UNL1       -0.1828
      6 C         144.8777  141.6515  163.4101 C.ar    1  UNL1        0.2339
      7 C         143.3477  142.4525  167.7604 C.3     1  UNL1        0.1109
      8 N         143.4386  142.2704  166.2743 N.am    1  UNL1       -0.2990
      9 C         144.3453  143.1496  165.4649 C.2     1  UNL1        0.2532
     10 O         145.1612  144.2108  166.1418 O.2     1  UNL1       -0.2699
     11 H         142.9031  141.5739  165.8301 H       1  UNL1        0.1498
     12 N         143.6442  145.4172  163.6302 N.pl3   1  UNL1       -0.3178
     13 H         144.3139  146.0712  163.9352 H       1  UNL1        0.1482
     14 C         142.1823  145.7366  163.7344 C.3     1  UNL1        0.0881
     15 C         141.1636  144.6465  163.5800 C.3     1  UNL1        0.0196
     16 C         140.5865  144.3449  162.2287 C.3     1  UNL1        0.0017
     17 C         139.5678  143.2548  162.0745 C.3     1  UNL1        0.0001
     18 C         139.1261  142.4662  163.2716 C.3     1  UNL1        0.0000
     19 C         138.5906  141.5979  164.3713 C.3     1  UNL1        0.0000
     20 C         137.5976  140.6480  163.7699 C.3     1  UNL1        0.0000
     21 C         137.5194  140.9292  162.2985 C.3     1  UNL1        0.0000
     22 C         138.4641  142.0529  161.9906 C.3     1  UNL1        0.0000
     23 C         139.7032  142.7677  164.6229 C.3     1  UNL1        0.0001
     24 C         140.7219  143.8578  164.7771 C.3     1  UNL1        0.0017
     25 C         144.7089  142.4211  159.5204 C.1     1  UNL1        0.1401
     26 N         144.7998  142.2390  158.0343 N.1     1  UNL1       -0.1876
     27 O         145.2282  140.5177  164.3274 O.3     1  UNL1       -0.4600
     28 C         144.8666  139.1109  163.9532 C.3     1  UNL1        0.2071
     29 C         143.4328  138.7451  163.7077 C.3     1  UNL1        0.0466
     30 C         143.0328  138.1094  162.4093 C.3     1  UNL1        0.0211
     31 C         141.5989  137.7436  162.1637 C.3     1  UNL1        0.0723
     32 N         140.5651  138.0134  163.2164 N.3     1  UNL1       -0.2715
     33 C         139.1313  137.6476  162.9709 C.3     1  UNL1        0.0896
     34 C         140.9651  138.6491  164.5149 C.3     1  UNL1        0.0723
     35 C         142.3990  139.0149  164.7605 C.3     1  UNL1        0.0211
@<TRIPOS>BOND
     1     7     8    1
     2     8     9   am
     3     9    10    2
     4     9     1    1
     5     1     2   ar
     6     2    12    1
     7    12    14    1
     8    14    15    1
     9    15    16    1
    10    16    17    1
    11    17    18    1
    12    18    19    1
    13    19    20    1
    14    20    21    1
    15    21    22    1
    16    18    23    1
    17    23    24    1
    18     2     3   ar
    19     3     4   ar
    20     4    25    1
    21    25    26    3
    22     4     5   ar
    23     5     6   ar
    24     6    27    1
    25    27    28    1
    26    28    29    1
    27    29    30    1
    28    30    31    1
    29    31    32    1
    30    32    33    1
    31    32    34    1
    32    34    35    1
    33     6     1   ar
    34    35    29    1
    35    24    15    1
    36    22    18    1
    37     8    11    1
    38    12    13    1
@<TRIPOS>MOLECULE
*****
 35 38 0 0 0
SMALL
GASTEIGER

@<TRIPOS>ATOM
      1 C         143.5322  141.7588  161.4831 C.ar    1  UNL1        0.1377
      2 C         143.4966  143.2456  161.2881 C.ar    1  UNL1        0.1397
      3 N         142.5784  143.8460  160.2652 N.ar    1  UNL1       -0.2027
      4 C         141.6958  142.9595  159.4373 C.ar    1  UNL1        0.2367
      5 N         141.7314  141.4727  159.6324 N.ar    1  UNL1       -0.1828
      6 C         142.6496  140.8723  160.6553 C.ar    1  UNL1        0.2339
      7 C         144.8824  139.4490  164.4145 C.3     1  UNL1        0.1109
      8 N         143.9641  140.0494  163.3915 N.am    1  UNL1       -0.2990
      9 C         144.4504  141.1583  162.5060 C.2     1  UNL1        0.2532
     10 O         145.8549  141.6667  162.6435 O.2     1  UNL1       -0.2699
     11 H         143.0423  139.7157  163.3013 H       1  UNL1        0.1498
     12 N         144.3792  144.1320  162.1159 N.pl3   1  UNL1       -0.3178
     13 H         145.3149  144.2822  161.8494 H       1  UNL1        0.1482
     14 C         143.8360  144.7894  163.3498 C.3     1  UNL1        0.0881
     15 C         143.1919  143.9592  164.4204 C.3     1  UNL1        0.0196
     16 C         144.0412  143.2590  165.4393 C.3     1  UNL1        0.0017
     17 C         143.3970  142.4288  166.5098 C.3     1  UNL1        0.0001
     18 C         141.9036  142.2989  166.5613 C.3     1  UNL1        0.0000
     19 C         140.4307  142.0774  166.7387 C.3     1  UNL1        0.0000
     20 C         140.2361  141.1861  167.9294 C.3     1  UNL1        0.0000
     21 C         141.5887  140.8568  168.4879 C.3     1  UNL1        0.0000
     22 C         142.6193  141.5446  167.6424 C.3     1  UNL1        0.0000
     23 C         141.0543  142.9992  165.5424 C.3     1  UNL1        0.0001
     24 C         141.6984  143.8294  164.4719 C.3     1  UNL1        0.0017
     25 C         140.7775  143.5599  158.4143 C.1     1  UNL1        0.1401
     26 N         139.8592  144.1603  157.3915 N.1     1  UNL1       -0.1876
     27 O         142.6852  139.3855  160.8504 O.3     1  UNL1       -0.4600
     28 C         141.4045  138.6133  160.9656 C.3     1  UNL1        0.2071
     29 C         140.6204  138.6475  162.2439 C.3     1  UNL1        0.0466
     30 C         140.7175  137.5076  163.2140 C.3     1  UNL1        0.0211
     31 C         139.9334  137.5418  164.4924 C.3     1  UNL1        0.0723
     32 N         139.0523  138.7159  164.8006 N.3     1  UNL1       -0.2715
     33 C         138.2683  138.7502  166.0789 C.3     1  UNL1        0.0896
     34 C         138.9552  139.8559  163.8305 C.3     1  UNL1        0.0723
     35 C         139.7393  139.8217  162.5522 C.3     1  UNL1        0.0211
@<TRIPOS>BOND
     1     7     8    1
     2     8     9   am
     3     9    10    2
     4     9     1    1
     5     1     2   ar
     6     2    12    1
     7    12    14    1
     8    14    15    1
     9    15    16    1
    10    16    17    1
    11    17    18    1
    12    18    19    1
    13    19    20    1
    14    20    21    1
    15    21    22    1
    16    18    23    1
    17    23    24    1
    18     2     3   ar
    19     3     4   ar
    20     4    25    1
    21    25    26    3
    22     4     5   ar
    23     5     6   ar
    24     6    27    1
    25    27    28    1
    26    28    29    1
    27    29    30    1
    28    30    31    1
    29    31    32    1
    30    32    33    1
    31    32    34    1
    32    34    35    1
    33     6     1   ar
    34    35    29    1
    35    24    15    1
    36    22    18    1
    37     8    11    1
    38    12    13    1
