@<TRIPOS>MOLECULE
*****
 37 40 0 0 0
SMALL
GASTEIGER

@<TRIPOS>ATOM
      1 S         139.9620  143.2709  164.7569 S.O2    1  UNL1        0.0736
      2 O         141.2704  143.7286  164.1837 O.2     1  UNL1       -0.1499
      3 O         138.6536  142.8132  165.3300 O.2     1  UNL1       -0.1499
      4 C         142.1550  140.5419  167.5840 C.ar    1  UNL1        0.0533
      5 C         142.8810  141.6743  166.9203 C.ar    1  UNL1        0.0161
      6 C         142.1500  142.5839  165.9780 C.ar    1  UNL1        0.0215
      7 C         140.6930  142.3612  165.6993 C.ar    1  UNL1        0.1253
      8 C         139.9670  141.2288  166.3630 C.ar    1  UNL1        0.0215
      9 C         140.6980  140.3191  167.3054 C.ar    1  UNL1        0.0161
     10 O         141.9557  140.9764  170.5457 O.2     1  UNL1       -0.2261
     11 C         142.7863  139.8494  170.0073 C.2     1  UNL1        0.4055
     12 N         142.8860  139.6321  168.5265 N.am    1  UNL1       -0.2499
     13 H         143.4312  138.8924  168.1731 H       1  UNL1        0.1582
     14 O         143.5173  138.9396  170.9497 O.3     1  UNL1       -0.4318
     15 C         143.6390  137.4775  170.6377 C.3     1  UNL1        0.2393
     16 C         144.6567  136.6401  171.3537 C.3     1  UNL1        0.1589
     17 C         144.4438  135.2512  171.8790 C.3     1  UNL1        0.0360
     18 C         145.7216  134.7972  172.5201 C.3     1  UNL1        0.0347
     19 C         146.7243  135.9054  172.3910 C.3     1  UNL1        0.1423
     20 O         146.0661  137.0443  171.6702 O.3     1  UNL1       -0.3524
     21 N         139.2310  144.1806  163.8145 N.pl3   1  UNL1       -0.2149
     22 H         138.5730  144.8245  164.1631 H       1  UNL1        0.1737
     23 C         139.5027  144.1092  162.3410 C.ar    1  UNL1        0.0679
     24 C         140.2385  145.2243  161.6591 C.ar    1  UNL1        0.0160
     25 C         140.5102  145.1529  160.1857 C.ar    1  UNL1        0.0013
     26 C         140.0460  143.9664  159.3941 C.ar    1  UNL1        0.0002
     27 C         139.3102  142.8512  160.0760 C.ar    1  UNL1        0.0045
     28 C         139.0385  142.9226  161.5494 C.ar    1  UNL1        0.0551
     29 C         138.3027  141.8074  162.2313 C.2     1  UNL1        0.2143
     30 O         136.8771  141.9992  162.6565 O.2     1  UNL1       -0.2849
     31 C         138.9926  140.5005  162.4881 C.ar    1  UNL1        0.1203
     32 C         140.4903  140.4415  162.5453 C.ar    1  UNL1        0.0247
     33 C         141.1802  139.1345  162.8020 C.ar    1  UNL1        0.0329
     34 C         140.3723  137.8865  163.0016 C.ar    1  UNL1        0.1592
     35 F         141.0621  136.5796  163.2584 F       1  UNL1       -0.2025
     36 C         138.8745  137.9455  162.9444 C.ar    1  UNL1        0.1285
     37 N         138.1847  139.2524  162.6877 N.ar    1  UNL1       -0.2383
@<TRIPOS>BOND
     1    10    11    2
     2    11    12   am
     3    12     4    1
     4     4     5   ar
     5     5     6   ar
     6     6     7   ar
     7     7     1    1
     8     1     2    2
     9     1     3    2
    10     1    21    1
    11    21    23    1
    12    23    24   ar
    13    24    25   ar
    14    25    26   ar
    15    26    27   ar
    16    27    28   ar
    17    28    29    1
    18    29    30    2
    19    29    31    1
    20    31    32   ar
    21    32    33   ar
    22    33    34   ar
    23    34    35    1
    24    34    36   ar
    25    36    37   ar
    26     7     8   ar
    27     8     9   ar
    28    11    14    1
    29    14    15    1
    30    15    16    1
    31    16    17    1
    32    17    18    1
    33    18    19    1
    34    19    20    1
    35     9     4   ar
    36    20    16    1
    37    28    23   ar
    38    37    31   ar
    39    12    13    1
    40    21    22    1
@<TRIPOS>MOLECULE
*****
 37 40 0 0 0
SMALL
GASTEIGER

@<TRIPOS>ATOM
      1 S         142.5517  142.1323  164.5609 S.O2    1  UNL1        0.0736
      2 O         143.7441  142.6257  165.3254 O.2     1  UNL1       -0.1499
      3 O         141.3593  141.6388  163.7964 O.2     1  UNL1       -0.1499
      4 C         140.4969  141.1030  168.4298 C.ar    1  UNL1        0.0533
      5 C         140.2392  142.4266  167.7727 C.ar    1  UNL1        0.0161
      6 C         140.9241  142.7696  166.4831 C.ar    1  UNL1        0.0215
      7 C         141.8668  141.7891  165.8506 C.ar    1  UNL1        0.1253
      8 C         142.1245  140.4656  166.5077 C.ar    1  UNL1        0.0215
      9 C         141.4396  140.1226  167.7973 C.ar    1  UNL1        0.0161
     10 O         138.1368  139.2511  168.4284 O.2     1  UNL1       -0.2261
     11 C         138.6319  139.8340  169.7188 C.2     1  UNL1        0.4055
     12 N         139.8120  140.7599  169.7195 N.am    1  UNL1       -0.2499
     13 H         140.1369  141.1425  170.5664 H       1  UNL1        0.1582
     14 O         137.9470  139.4908  171.0084 O.3     1  UNL1       -0.4318
     15 C         136.5683  138.9001  170.9914 C.3     1  UNL1        0.2393
     16 C         136.1926  137.8439  171.9880 C.3     1  UNL1        0.1589
     17 C         135.0686  137.9256  172.9780 C.3     1  UNL1        0.0360
     18 C         135.0563  136.6528  173.7714 C.3     1  UNL1        0.0347
     19 C         136.1727  135.7843  173.2719 C.3     1  UNL1        0.1423
     20 O         136.8750  136.5205  172.1697 O.3     1  UNL1       -0.3524
     21 N         143.2366  142.4753  163.2713 N.pl3   1  UNL1       -0.2149
     22 H         143.5846  143.3847  163.1255 H       1  UNL1        0.1737
     23 C         143.3912  141.4330  162.2038 C.ar    1  UNL1        0.0679
     24 C         144.0545  140.1259  162.5223 C.ar    1  UNL1        0.0160
     25 C         144.2091  139.0835  161.4548 C.ar    1  UNL1        0.0013
     26 C         143.7005  139.3483  160.0687 C.ar    1  UNL1        0.0002
     27 C         143.0372  140.6555  159.7501 C.ar    1  UNL1        0.0045
     28 C         142.8825  141.6978  160.8177 C.ar    1  UNL1        0.0551
     29 C         142.2193  143.0049  160.4992 C.2     1  UNL1        0.2143
     30 O         142.8297  143.9288  159.4873 O.2     1  UNL1       -0.2849
     31 C         140.9456  143.3882  161.1925 C.ar    1  UNL1        0.1203
     32 C         139.6772  142.6442  160.8963 C.ar    1  UNL1        0.0247
     33 C         138.4035  143.0276  161.5897 C.ar    1  UNL1        0.0329
     34 C         138.3982  144.1547  162.5793 C.ar    1  UNL1        0.1592
     35 F         137.1245  144.5380  163.2727 F       1  UNL1       -0.2025
     36 C         139.6666  144.8987  162.8756 C.ar    1  UNL1        0.1285
     37 N         140.9403  144.5154  162.1822 N.ar    1  UNL1       -0.2383
@<TRIPOS>BOND
     1    10    11    2
     2    11    12   am
     3    12     4    1
     4     4     5   ar
     5     5     6   ar
     6     6     7   ar
     7     7     1    1
     8     1     2    2
     9     1     3    2
    10     1    21    1
    11    21    23    1
    12    23    24   ar
    13    24    25   ar
    14    25    26   ar
    15    26    27   ar
    16    27    28   ar
    17    28    29    1
    18    29    30    2
    19    29    31    1
    20    31    32   ar
    21    32    33   ar
    22    33    34   ar
    23    34    35    1
    24    34    36   ar
    25    36    37   ar
    26     7     8   ar
    27     8     9   ar
    28    11    14    1
    29    14    15    1
    30    15    16    1
    31    16    17    1
    32    17    18    1
    33    18    19    1
    34    19    20    1
    35     9     4   ar
    36    20    16    1
    37    28    23   ar
    38    37    31   ar
    39    12    13    1
    40    21    22    1
@<TRIPOS>MOLECULE
*****
 37 40 0 0 0
SMALL
GASTEIGER

@<TRIPOS>ATOM
      1 S         140.3820  138.6992  162.8554 S.O2    1  UNL1        0.0736
      2 O         139.9969  137.2669  162.6311 O.2     1  UNL1       -0.1499
      3 O         140.7671  140.1314  163.0796 O.2     1  UNL1       -0.1499
      4 C         138.3396  139.8499  159.0142 C.ar    1  UNL1        0.0533
      5 C         139.7037  139.2269  158.9809 C.ar    1  UNL1        0.0161
      6 C         140.3845  138.8434  160.2613 C.ar    1  UNL1        0.0215
      7 C         139.7011  139.0828  161.5750 C.ar    1  UNL1        0.1253
      8 C         138.3371  139.7057  161.6083 C.ar    1  UNL1        0.0215
      9 C         137.6563  140.0893  160.3279 C.ar    1  UNL1        0.0161
     10 O         138.0962  142.7414  158.2525 O.2     1  UNL1       -0.2261
     11 C         137.5371  141.6792  157.3530 C.2     1  UNL1        0.4055
     12 N         137.6588  140.2335  157.7338 N.am    1  UNL1       -0.2499
     13 H         137.2919  139.5363  157.1434 H       1  UNL1        0.1582
     14 O         136.8563  142.0628  156.0726 O.3     1  UNL1       -0.4318
     15 C         135.9772  141.0744  155.3652 C.3     1  UNL1        0.2393
     16 C         134.6742  140.6559  155.9790 C.3     1  UNL1        0.1589
     17 C         133.3077  141.0480  155.5003 C.3     1  UNL1        0.0360
     18 C         132.2978  140.4062  156.4047 C.3     1  UNL1        0.0347
     19 C         133.0401  139.6175  157.4426 C.3     1  UNL1        0.1423
     20 O         134.5087  139.7718  157.1794 O.3     1  UNL1       -0.3524
     21 N         141.0628  138.3157  164.1357 N.pl3   1  UNL1       -0.2149
     22 H         141.8482  137.7223  164.1171 H       1  UNL1        0.1737
     23 C         140.5470  138.8361  165.4446 C.ar    1  UNL1        0.0679
     24 C         139.0821  138.7586  165.7576 C.ar    1  UNL1        0.0160
     25 C         138.5663  139.2791  167.0665 C.ar    1  UNL1        0.0013
     26 C         139.5153  139.8771  168.0623 C.ar    1  UNL1        0.0002
     27 C         140.9803  139.9546  167.7492 C.ar    1  UNL1        0.0045
     28 C         141.4961  139.4342  166.4404 C.ar    1  UNL1        0.0551
     29 C         142.9610  139.5117  166.1273 C.2     1  UNL1        0.2143
     30 O         143.9115  138.5243  166.7369 O.2     1  UNL1       -0.2849
     31 C         143.4754  140.5766  165.2047 C.ar    1  UNL1        0.1203
     32 C         144.7027  140.3255  164.3797 C.ar    1  UNL1        0.0247
     33 C         145.2171  141.3905  163.4570 C.ar    1  UNL1        0.0329
     34 C         144.5041  142.7065  163.3593 C.ar    1  UNL1        0.1592
     35 F         145.0185  143.7714  162.4367 F       1  UNL1       -0.2025
     36 C         143.2768  142.9577  164.1843 C.ar    1  UNL1        0.1285
     37 N         142.7624  141.8928  165.1069 N.ar    1  UNL1       -0.2383
@<TRIPOS>BOND
     1    10    11    2
     2    11    12   am
     3    12     4    1
     4     4     5   ar
     5     5     6   ar
     6     6     7   ar
     7     7     1    1
     8     1     2    2
     9     1     3    2
    10     1    21    1
    11    21    23    1
    12    23    24   ar
    13    24    25   ar
    14    25    26   ar
    15    26    27   ar
    16    27    28   ar
    17    28    29    1
    18    29    30    2
    19    29    31    1
    20    31    32   ar
    21    32    33   ar
    22    33    34   ar
    23    34    35    1
    24    34    36   ar
    25    36    37   ar
    26     7     8   ar
    27     8     9   ar
    28    11    14    1
    29    14    15    1
    30    15    16    1
    31    16    17    1
    32    17    18    1
    33    18    19    1
    34    19    20    1
    35     9     4   ar
    36    20    16    1
    37    28    23   ar
    38    37    31   ar
    39    12    13    1
    40    21    22    1
@<TRIPOS>MOLECULE
*****
 37 40 0 0 0
SMALL
GASTEIGER

@<TRIPOS>ATOM
      1 S         139.9644  142.2793  165.7024 S.O2    1  UNL1        0.0736
      2 O         139.9784  143.5989  166.4155 O.2     1  UNL1       -0.1499
      3 O         139.9505  140.9597  164.9894 O.2     1  UNL1       -0.1499
      4 C         139.9550  144.4184  161.7434 C.ar    1  UNL1        0.0533
      5 C         139.3253  143.0624  161.8647 C.ar    1  UNL1        0.0161
      6 C         139.3285  142.3494  163.1843 C.ar    1  UNL1        0.0215
      7 C         139.9613  142.9924  164.3827 C.ar    1  UNL1        0.1253
      8 C         140.5910  144.3483  164.2614 C.ar    1  UNL1        0.0215
      9 C         140.5879  145.0613  162.9418 C.ar    1  UNL1        0.0161
     10 O         142.3851  144.3325  159.9862 O.2     1  UNL1       -0.2261
     11 C         141.1669  145.0885  159.5451 C.2     1  UNL1        0.4055
     12 N         139.9519  145.1315  160.4237 N.am    1  UNL1       -0.2499
     13 H         139.1524  145.6277  160.1342 H       1  UNL1        0.1582
     14 O         141.1638  145.8016  158.2254 O.3     1  UNL1       -0.4318
     15 C         139.9314  145.7915  157.3704 C.3     1  UNL1        0.2393
     16 C         139.7295  146.8562  156.3332 C.3     1  UNL1        0.1589
     17 C         140.3720  146.9005  154.9785 C.3     1  UNL1        0.0360
     18 C         139.8892  148.1351  154.2767 C.3     1  UNL1        0.0347
     19 C         138.9483  148.8538  155.1977 C.3     1  UNL1        0.1423
     20 O         138.8496  148.0634  156.4686 O.3     1  UNL1       -0.3524
     21 N         139.9676  141.5662  167.0221 N.pl3   1  UNL1       -0.2149
     22 H         139.3614  140.8049  167.1716 H       1  UNL1        0.1737
     23 C         140.8941  142.0129  168.1138 C.ar    1  UNL1        0.0679
     24 C         140.3544  142.7624  169.2957 C.ar    1  UNL1        0.0160
     25 C         141.2809  143.2091  170.3874 C.ar    1  UNL1        0.0013
     26 C         142.7473  142.9064  170.2973 C.ar    1  UNL1        0.0002
     27 C         143.2871  142.1569  169.1153 C.ar    1  UNL1        0.0045
     28 C         142.3605  141.7101  168.0236 C.ar    1  UNL1        0.0551
     29 C         142.9003  140.9607  166.8417 C.2     1  UNL1        0.2143
     30 O         142.9726  139.4627  166.8727 O.2     1  UNL1       -0.2849
     31 C         143.3678  141.7091  165.6288 C.ar    1  UNL1        0.1203
     32 C         143.3722  141.0367  164.2880 C.ar    1  UNL1        0.0247
     33 C         143.8397  141.7852  163.0750 C.ar    1  UNL1        0.0329
     34 C         144.3027  143.2062  163.2029 C.ar    1  UNL1        0.1592
     35 F         144.7702  143.9546  161.9900 F       1  UNL1       -0.2025
     36 C         144.2983  143.8787  164.5437 C.ar    1  UNL1        0.1285
     37 N         143.8309  143.1302  165.7566 N.ar    1  UNL1       -0.2383
@<TRIPOS>BOND
     1    10    11    2
     2    11    12   am
     3    12     4    1
     4     4     5   ar
     5     5     6   ar
     6     6     7   ar
     7     7     1    1
     8     1     2    2
     9     1     3    2
    10     1    21    1
    11    21    23    1
    12    23    24   ar
    13    24    25   ar
    14    25    26   ar
    15    26    27   ar
    16    27    28   ar
    17    28    29    1
    18    29    30    2
    19    29    31    1
    20    31    32   ar
    21    32    33   ar
    22    33    34   ar
    23    34    35    1
    24    34    36   ar
    25    36    37   ar
    26     7     8   ar
    27     8     9   ar
    28    11    14    1
    29    14    15    1
    30    15    16    1
    31    16    17    1
    32    17    18    1
    33    18    19    1
    34    19    20    1
    35     9     4   ar
    36    20    16    1
    37    28    23   ar
    38    37    31   ar
    39    12    13    1
    40    21    22    1
@<TRIPOS>MOLECULE
*****
 37 40 0 0 0
SMALL
GASTEIGER

@<TRIPOS>ATOM
      1 S         138.7430  142.5807  161.2413 S.O2    1  UNL1        0.0736
      2 O         137.8345  143.6568  161.7576 O.2     1  UNL1       -0.1499
      3 O         139.6516  141.5046  160.7251 O.2     1  UNL1       -0.1499
      4 C         139.8428  141.4827  165.4645 C.ar    1  UNL1        0.0533
      5 C         140.8443  141.3141  164.3607 C.ar    1  UNL1        0.0161
      6 C         140.4778  141.6801  162.9530 C.ar    1  UNL1        0.0215
      7 C         139.1096  142.2147  162.6491 C.ar    1  UNL1        0.1253
      8 C         138.1080  142.3832  163.7529 C.ar    1  UNL1        0.0215
      9 C         138.4746  142.0172  165.1606 C.ar    1  UNL1        0.0161
     10 O         138.4084  139.2442  166.8544 O.2     1  UNL1       -0.2261
     11 C         139.4921  139.9974  167.5671 C.2     1  UNL1        0.4055
     12 N         140.2093  141.1167  166.8722 N.am    1  UNL1       -0.2499
     13 H         140.9206  141.6110  167.3401 H       1  UNL1        0.1582
     14 O         139.8587  139.6314  168.9749 O.3     1  UNL1       -0.4318
     15 C         140.0217  140.7042  170.0105 C.3     1  UNL1        0.2393
     16 C         141.3122  141.4625  170.1081 C.3     1  UNL1        0.1589
     17 C         142.6345  141.0283  169.5485 C.3     1  UNL1        0.0360
     18 C         143.6465  142.0855  169.8769 C.3     1  UNL1        0.0347
     19 C         142.9497  143.1732  170.6396 C.3     1  UNL1        0.1423
     20 O         141.5071  142.7881  170.7824 O.3     1  UNL1       -0.3524
     21 N         138.3765  142.9467  159.8336 N.pl3   1  UNL1       -0.2149
     22 H         137.4299  143.0414  159.5802 H       1  UNL1        0.1737
     23 C         139.4522  143.1683  158.8120 C.ar    1  UNL1        0.0679
     24 C         139.5268  142.2896  157.5987 C.ar    1  UNL1        0.0160
     25 C         140.6026  142.5112  156.5771 C.ar    1  UNL1        0.0013
     26 C         141.6037  143.6116  156.7688 C.ar    1  UNL1        0.0002
     27 C         141.5291  144.4905  157.9821 C.ar    1  UNL1        0.0045
     28 C         140.4534  144.2688  159.0038 C.ar    1  UNL1        0.0551
     29 C         140.3788  145.1476  160.2171 C.2     1  UNL1        0.2143
     30 O         139.3529  146.2394  160.2904 O.2     1  UNL1       -0.2849
     31 C         141.3301  144.9345  161.3570 C.ar    1  UNL1        0.1203
     32 C         140.9778  145.4259  162.7298 C.ar    1  UNL1        0.0247
     33 C         141.9292  145.2128  163.8698 C.ar    1  UNL1        0.0329
     34 C         143.2328  144.5082  163.6370 C.ar    1  UNL1        0.1592
     35 F         144.1841  144.2951  164.7770 F       1  UNL1       -0.2025
     36 C         143.5851  144.0168  162.2643 C.ar    1  UNL1        0.1285
     37 N         142.6338  144.2299  161.1243 N.ar    1  UNL1       -0.2383
@<TRIPOS>BOND
     1    10    11    2
     2    11    12   am
     3    12     4    1
     4     4     5   ar
     5     5     6   ar
     6     6     7   ar
     7     7     1    1
     8     1     2    2
     9     1     3    2
    10     1    21    1
    11    21    23    1
    12    23    24   ar
    13    24    25   ar
    14    25    26   ar
    15    26    27   ar
    16    27    28   ar
    17    28    29    1
    18    29    30    2
    19    29    31    1
    20    31    32   ar
    21    32    33   ar
    22    33    34   ar
    23    34    35    1
    24    34    36   ar
    25    36    37   ar
    26     7     8   ar
    27     8     9   ar
    28    11    14    1
    29    14    15    1
    30    15    16    1
    31    16    17    1
    32    17    18    1
    33    18    19    1
    34    19    20    1
    35     9     4   ar
    36    20    16    1
    37    28    23   ar
    38    37    31   ar
    39    12    13    1
    40    21    22    1
@<TRIPOS>MOLECULE
*****
 37 40 0 0 0
SMALL
GASTEIGER

@<TRIPOS>ATOM
      1 S         138.9030  142.3305  161.7085 S.O2    1  UNL1        0.0736
      2 O         138.0411  143.2324  162.5413 O.2     1  UNL1       -0.1499
      3 O         139.7650  141.4287  160.8757 O.2     1  UNL1       -0.1499
      4 C         140.6379  140.5322  165.4510 C.ar    1  UNL1        0.0533
      5 C         141.4714  140.6248  164.2073 C.ar    1  UNL1        0.0161
      6 C         140.8931  141.2243  162.9599 C.ar    1  UNL1        0.0215
      7 C         139.4813  141.7311  162.9561 C.ar    1  UNL1        0.1253
      8 C         138.6478  141.6385  164.1997 C.ar    1  UNL1        0.0215
      9 C         139.2261  141.0390  165.4471 C.ar    1  UNL1        0.0161
     10 O         143.0711  141.7519  166.7128 O.2     1  UNL1       -0.2261
     11 C         142.4327  140.5426  167.3294 C.2     1  UNL1        0.4055
     12 N         141.2162  139.9328  166.6985 N.am    1  UNL1       -0.2499
     13 H         140.7972  139.1391  167.1032 H       1  UNL1        0.1582
     14 O         143.0110  139.9431  168.5770 O.3     1  UNL1       -0.4318
     15 C         142.8679  140.6573  169.8882 C.3     1  UNL1        0.2393
     16 C         141.8184  141.7158  170.0551 C.3     1  UNL1        0.1589
     17 C         140.4634  141.5249  170.6696 C.3     1  UNL1        0.0360
     18 C         139.7471  142.8422  170.6310 C.3     1  UNL1        0.0347
     19 C         140.6594  143.8473  169.9926 C.3     1  UNL1        0.1423
     20 O         141.9395  143.1512  169.6367 O.3     1  UNL1       -0.3524
     21 N         138.3248  142.9299  160.4610 N.pl3   1  UNL1       -0.2149
     22 H         137.3569  143.0989  160.3989 H       1  UNL1        0.1737
     23 C         139.2212  143.2719  159.3080 C.ar    1  UNL1        0.0679
     24 C         139.1074  142.5136  158.0188 C.ar    1  UNL1        0.0160
     25 C         140.0038  142.8555  156.8658 C.ar    1  UNL1        0.0013
     26 C         141.0142  143.9558  157.0020 C.ar    1  UNL1        0.0002
     27 C         141.1281  144.7142  158.2912 C.ar    1  UNL1        0.0045
     28 C         140.2316  144.3722  159.4442 C.ar    1  UNL1        0.0551
     29 C         140.3455  145.1305  160.7333 C.2     1  UNL1        0.2143
     30 O         139.3902  146.2475  161.0334 O.2     1  UNL1       -0.2849
     31 C         141.4146  144.7719  161.7224 C.ar    1  UNL1        0.1203
     32 C         141.1904  145.0059  163.1870 C.ar    1  UNL1        0.0247
     33 C         142.2596  144.6473  164.1761 C.ar    1  UNL1        0.0329
     34 C         143.5529  144.0547  163.7007 C.ar    1  UNL1        0.1592
     35 F         144.6220  143.6961  164.6898 F       1  UNL1       -0.2025
     36 C         143.7771  143.8207  162.2361 C.ar    1  UNL1        0.1285
     37 N         142.7080  144.1793  161.2470 N.ar    1  UNL1       -0.2383
@<TRIPOS>BOND
     1    10    11    2
     2    11    12   am
     3    12     4    1
     4     4     5   ar
     5     5     6   ar
     6     6     7   ar
     7     7     1    1
     8     1     2    2
     9     1     3    2
    10     1    21    1
    11    21    23    1
    12    23    24   ar
    13    24    25   ar
    14    25    26   ar
    15    26    27   ar
    16    27    28   ar
    17    28    29    1
    18    29    30    2
    19    29    31    1
    20    31    32   ar
    21    32    33   ar
    22    33    34   ar
    23    34    35    1
    24    34    36   ar
    25    36    37   ar
    26     7     8   ar
    27     8     9   ar
    28    11    14    1
    29    14    15    1
    30    15    16    1
    31    16    17    1
    32    17    18    1
    33    18    19    1
    34    19    20    1
    35     9     4   ar
    36    20    16    1
    37    28    23   ar
    38    37    31   ar
    39    12    13    1
    40    21    22    1
@<TRIPOS>MOLECULE
*****
 37 40 0 0 0
SMALL
GASTEIGER

@<TRIPOS>ATOM
      1 S         139.6386  141.1054  165.7612 S.O2    1  UNL1        0.0736
      2 O         139.6787  139.6971  165.2465 O.2     1  UNL1       -0.1499
      3 O         139.5986  142.5137  166.2760 O.2     1  UNL1       -0.1499
      4 C         138.8380  142.6057  161.5949 C.ar    1  UNL1        0.0533
      5 C         137.7890  142.7476  162.6577 C.ar    1  UNL1        0.0161
      6 C         138.0559  142.2476  164.0464 C.ar    1  UNL1        0.0215
      7 C         139.3718  141.6055  164.3724 C.ar    1  UNL1        0.1253
      8 C         140.4207  141.4635  163.3097 C.ar    1  UNL1        0.0215
      9 C         140.1539  141.9636  161.9209 C.ar    1  UNL1        0.0161
     10 O         138.0589  140.6796  159.4308 O.2     1  UNL1       -0.2261
     11 C         138.1816  142.1427  159.1241 C.2     1  UNL1        0.4055
     12 N         138.5711  143.1058  160.2061 N.am    1  UNL1       -0.2499
     13 H         138.6517  144.0661  160.0048 H       1  UNL1        0.1582
     14 O         137.9148  142.6429  157.7353 O.3     1  UNL1       -0.4318
     15 C         137.6618  141.6688  156.6231 C.3     1  UNL1        0.2393
     16 C         136.2581  141.2560  156.2924 C.3     1  UNL1        0.1589
     17 C         135.4243  141.7902  155.1657 C.3     1  UNL1        0.0360
     18 C         134.0926  141.1010  155.2073 C.3     1  UNL1        0.0347
     19 C         134.1035  140.1409  156.3598 C.3     1  UNL1        0.1423
     20 O         135.4418  140.2367  157.0304 O.3     1  UNL1       -0.3524
     21 N         139.9055  140.6053  167.1500 N.pl3   1  UNL1       -0.2149
     22 H         139.5038  139.7596  167.4543 H       1  UNL1        0.1737
     23 C         140.7843  141.3939  168.0751 C.ar    1  UNL1        0.0679
     24 C         140.1830  142.1271  169.2374 C.ar    1  UNL1        0.0160
     25 C         141.0618  142.9156  170.1625 C.ar    1  UNL1        0.0013
     26 C         142.5419  142.9710  169.9254 C.ar    1  UNL1        0.0002
     27 C         143.1433  142.2378  168.7631 C.ar    1  UNL1        0.0045
     28 C         142.2645  141.4492  167.8380 C.ar    1  UNL1        0.0551
     29 C         142.8657  140.7160  166.6757 C.2     1  UNL1        0.2143
     30 O         142.9369  139.2178  166.6898 O.2     1  UNL1       -0.2849
     31 C         143.3958  141.4810  165.4995 C.ar    1  UNL1        0.1203
     32 C         143.0126  142.9182  165.3051 C.ar    1  UNL1        0.0247
     33 C         143.5428  143.6832  164.1287 C.ar    1  UNL1        0.0329
     34 C         144.4561  143.0111  163.1468 C.ar    1  UNL1        0.1592
     35 F         144.9862  143.7762  161.9706 F       1  UNL1       -0.2025
     36 C         144.8393  141.5740  163.3413 C.ar    1  UNL1        0.1285
     37 N         144.3092  140.8089  164.5175 N.ar    1  UNL1       -0.2383
@<TRIPOS>BOND
     1    10    11    2
     2    11    12   am
     3    12     4    1
     4     4     5   ar
     5     5     6   ar
     6     6     7   ar
     7     7     1    1
     8     1     2    2
     9     1     3    2
    10     1    21    1
    11    21    23    1
    12    23    24   ar
    13    24    25   ar
    14    25    26   ar
    15    26    27   ar
    16    27    28   ar
    17    28    29    1
    18    29    30    2
    19    29    31    1
    20    31    32   ar
    21    32    33   ar
    22    33    34   ar
    23    34    35    1
    24    34    36   ar
    25    36    37   ar
    26     7     8   ar
    27     8     9   ar
    28    11    14    1
    29    14    15    1
    30    15    16    1
    31    16    17    1
    32    17    18    1
    33    18    19    1
    34    19    20    1
    35     9     4   ar
    36    20    16    1
    37    28    23   ar
    38    37    31   ar
    39    12    13    1
    40    21    22    1
@<TRIPOS>MOLECULE
*****
 37 40 0 0 0
SMALL
GASTEIGER

@<TRIPOS>ATOM
      1 S         143.1299  141.4742  165.2663 S.O2    1  UNL1        0.0736
      2 O         143.4487  140.1712  165.9376 O.2     1  UNL1       -0.1499
      3 O         142.8111  142.7771  164.5950 O.2     1  UNL1       -0.1499
      4 C         143.8851  139.5900  161.2502 C.ar    1  UNL1        0.0533
      5 C         143.9405  141.0813  161.4012 C.ar    1  UNL1        0.0161
      6 C         143.6888  141.7093  162.7399 C.ar    1  UNL1        0.0215
      7 C         143.3816  140.8460  163.9275 C.ar    1  UNL1        0.1253
      8 C         143.3262  139.3547  163.7765 C.ar    1  UNL1        0.0215
      9 C         143.5780  138.7267  162.4378 C.ar    1  UNL1        0.0161
     10 O         141.5786  138.8904  159.4638 O.2     1  UNL1       -0.2261
     11 C         142.9836  138.6121  159.0183 C.2     1  UNL1        0.4055
     12 N         144.1369  138.9618  159.9114 N.am    1  UNL1       -0.2499
     13 H         145.0590  138.7791  159.6190 H       1  UNL1        0.1582
     14 O         143.2354  137.9840  157.6795 O.3     1  UNL1       -0.4318
     15 C         142.1131  137.3165  156.9413 C.3     1  UNL1        0.2393
     16 C         142.2123  135.8641  156.5799 C.3     1  UNL1        0.1589
     17 C         141.4693  135.1786  155.4718 C.3     1  UNL1        0.0360
     18 C         141.8696  133.7330  155.4702 C.3     1  UNL1        0.0347
     19 C         142.8601  133.5251  156.5774 C.3     1  UNL1        0.1423
     20 O         143.0718  134.8423  157.2632 O.3     1  UNL1       -0.3524
     21 N         142.8782  142.1023  166.6049 N.pl3   1  UNL1       -0.2149
     22 H         143.2220  143.0044  166.7979 H       1  UNL1        0.1737
     23 C         142.1025  141.3560  167.6496 C.ar    1  UNL1        0.0679
     24 C         142.7942  140.8565  168.8833 C.ar    1  UNL1        0.0160
     25 C         142.0186  140.1103  169.9280 C.ar    1  UNL1        0.0013
     26 C         140.5512  139.8635  169.7391 C.ar    1  UNL1        0.0002
     27 C         139.8593  140.3630  168.5054 C.ar    1  UNL1        0.0045
     28 C         140.6350  141.1093  167.4607 C.ar    1  UNL1        0.0551
     29 C         139.9432  141.6088  166.2270 C.2     1  UNL1        0.2143
     30 O         139.7454  143.0815  166.0223 O.2     1  UNL1       -0.2849
     31 C         139.4493  140.6356  165.1981 C.ar    1  UNL1        0.1203
     32 C         139.9361  139.2168  165.2129 C.ar    1  UNL1        0.0247
     33 C         139.4421  138.2436  164.1839 C.ar    1  UNL1        0.0329
     34 C         138.4614  138.6891  163.1401 C.ar    1  UNL1        0.1592
     35 F         137.9675  137.7159  162.1111 F       1  UNL1       -0.2025
     36 C         137.9746  140.1078  163.1252 C.ar    1  UNL1        0.1285
     37 N         138.4685  141.0810  164.1542 N.ar    1  UNL1       -0.2383
@<TRIPOS>BOND
     1    10    11    2
     2    11    12   am
     3    12     4    1
     4     4     5   ar
     5     5     6   ar
     6     6     7   ar
     7     7     1    1
     8     1     2    2
     9     1     3    2
    10     1    21    1
    11    21    23    1
    12    23    24   ar
    13    24    25   ar
    14    25    26   ar
    15    26    27   ar
    16    27    28   ar
    17    28    29    1
    18    29    30    2
    19    29    31    1
    20    31    32   ar
    21    32    33   ar
    22    33    34   ar
    23    34    35    1
    24    34    36   ar
    25    36    37   ar
    26     7     8   ar
    27     8     9   ar
    28    11    14    1
    29    14    15    1
    30    15    16    1
    31    16    17    1
    32    17    18    1
    33    18    19    1
    34    19    20    1
    35     9     4   ar
    36    20    16    1
    37    28    23   ar
    38    37    31   ar
    39    12    13    1
    40    21    22    1
@<TRIPOS>MOLECULE
*****
 37 40 0 0 0
SMALL
GASTEIGER

@<TRIPOS>ATOM
      1 S         139.0799  140.9334  165.6539 S.O2    1  UNL1        0.0736
      2 O         138.4289  139.9493  164.7278 O.2     1  UNL1       -0.1499
      3 O         139.7309  141.9175  166.5801 O.2     1  UNL1       -0.1499
      4 C         139.1872  143.9789  162.3428 C.ar    1  UNL1        0.0533
      5 C         140.1996  144.0367  163.4481 C.ar    1  UNL1        0.0161
      6 C         140.1638  143.0216  164.5518 C.ar    1  UNL1        0.0215
      7 C         139.1156  141.9486  164.5502 C.ar    1  UNL1        0.1253
      8 C         138.1033  141.8907  163.4449 C.ar    1  UNL1        0.0215
      9 C         138.1391  142.9058  162.3412 C.ar    1  UNL1        0.0161
     10 O         141.2445  143.7608  160.1702 O.2     1  UNL1       -0.2261
     11 C         140.2516  144.8850  160.1528 C.2     1  UNL1        0.4055
     12 N         139.2230  144.9940  161.2390 N.am    1  UNL1       -0.2499
     13 H         138.5713  145.7319  161.2276 H       1  UNL1        0.1582
     14 O         140.2873  145.9001  159.0490 O.3     1  UNL1       -0.4318
     15 C         140.7209  145.4952  157.6714 C.3     1  UNL1        0.2393
     16 C         140.2984  146.3073  156.4832 C.3     1  UNL1        0.1589
     17 C         139.1859  147.3130  156.4531 C.3     1  UNL1        0.0360
     18 C         139.1142  147.8836  155.0677 C.3     1  UNL1        0.0347
     19 C         140.1824  147.2306  154.2416 C.3     1  UNL1        0.1423
     20 O         140.9143  146.2564  155.1164 O.3     1  UNL1       -0.3524
     21 N         139.0442  139.9183  166.7577 N.pl3   1  UNL1       -0.2149
     22 H         138.3225  139.2493  166.7880 H       1  UNL1        0.1737
     23 C         140.1079  139.9225  167.8152 C.ar    1  UNL1        0.0679
     24 C         139.7642  140.3090  169.2232 C.ar    1  UNL1        0.0160
     25 C         140.8280  140.3132  170.2807 C.ar    1  UNL1        0.0013
     26 C         142.2355  139.9309  169.9303 C.ar    1  UNL1        0.0002
     27 C         142.5792  139.5444  168.5222 C.ar    1  UNL1        0.0045
     28 C         141.5155  139.5402  167.4647 C.ar    1  UNL1        0.0551
     29 C         141.8592  139.1537  166.0567 C.2     1  UNL1        0.2143
     30 O         141.0838  138.0716  165.3655 O.2     1  UNL1       -0.2849
     31 C         142.9782  139.8493  165.3400 C.ar    1  UNL1        0.1203
     32 C         143.2257  141.3101  165.5745 C.ar    1  UNL1        0.0247
     33 C         144.3449  142.0057  164.8577 C.ar    1  UNL1        0.0329
     34 C         145.2165  141.2405  163.9065 C.ar    1  UNL1        0.1592
     35 F         146.3356  141.9361  163.1898 F       1  UNL1       -0.2025
     36 C         144.9690  139.7798  163.6721 C.ar    1  UNL1        0.1285
     37 N         143.8499  139.0842  164.3888 N.ar    1  UNL1       -0.2383
@<TRIPOS>BOND
     1    10    11    2
     2    11    12   am
     3    12     4    1
     4     4     5   ar
     5     5     6   ar
     6     6     7   ar
     7     7     1    1
     8     1     2    2
     9     1     3    2
    10     1    21    1
    11    21    23    1
    12    23    24   ar
    13    24    25   ar
    14    25    26   ar
    15    26    27   ar
    16    27    28   ar
    17    28    29    1
    18    29    30    2
    19    29    31    1
    20    31    32   ar
    21    32    33   ar
    22    33    34   ar
    23    34    35    1
    24    34    36   ar
    25    36    37   ar
    26     7     8   ar
    27     8     9   ar
    28    11    14    1
    29    14    15    1
    30    15    16    1
    31    16    17    1
    32    17    18    1
    33    18    19    1
    34    19    20    1
    35     9     4   ar
    36    20    16    1
    37    28    23   ar
    38    37    31   ar
    39    12    13    1
    40    21    22    1
