@<TRIPOS>MOLECULE
*****
 35 38 0 0 0
SMALL
GASTEIGER

@<TRIPOS>ATOM
      1 C         138.8237  139.6729  165.4335 C.ar    1  UNL1        0.0236
      2 C         140.1445  140.1735  165.9382 C.ar    1  UNL1        0.0220
      3 C         140.0914  140.1913  167.4372 C.ar    1  UNL1        0.0961
      4 C         141.1007  140.5901  168.4726 C.ar    1  UNL1        0.0685
      5 C         140.7564  140.4993  169.9297 C.ar    1  UNL1        0.0885
      6 C         139.4028  140.0096  170.3514 C.ar    1  UNL1        0.1263
      7 N         138.3934  139.6108  169.3160 N.ar    1  UNL1       -0.1633
      8 N         138.7377  139.7017  167.8589 N.ar    1  UNL1       -0.2270
      9 C         137.9542  139.3813  166.6206 C.ar    1  UNL1        0.1005
     10 C         137.8397  140.6387  163.2315 C.ar    1  UNL1        0.1387
     11 C         137.4557  140.4608  161.7924 C.ar    1  UNL1        0.0369
     12 C         137.6716  139.1394  161.1163 C.ar    1  UNL1        0.0031
     13 C         138.2715  137.9957  161.8793 C.ar    1  UNL1        0.0002
     14 C         138.6555  138.1736  163.3184 C.ar    1  UNL1        0.0031
     15 C         138.4396  139.4951  163.9945 C.ar    1  UNL1        0.0355
     16 C         137.7656  143.2337  163.1276 C.3     1  UNL1        0.2525
     17 O         137.6238  141.9602  163.9075 O.3     1  UNL1       -0.4714
     18 C         141.7658  140.8981  170.9652 C.2     1  UNL1        0.2456
     19 N         142.9538  140.0218  171.2311 N.am    1  UNL1       -0.3252
     20 O         141.5872  142.1733  171.7347 O.2     1  UNL1       -0.2703
     21 H         143.0710  139.1848  170.7261 H       1  UNL1        0.1453
     22 H         143.6163  140.2835  171.9107 H       1  UNL1        0.1453
     23 N         142.4545  141.0798  168.0509 N.pl3   1  UNL1       -0.3327
     24 H         142.9204  141.7614  168.5872 H       1  UNL1        0.1468
     25 C         143.0982  140.5309  166.8122 C.3     1  UNL1        0.0702
     26 C         143.3673  139.0834  166.5258 C.3     1  UNL1        0.0208
     27 C         144.0212  138.9911  165.1790 C.3     1  UNL1        0.0160
     28 C         144.1562  140.3816  164.6330 C.3     1  UNL1        0.0404
     29 C         144.7822  139.6905  163.4582 C.3     1  UNL1        0.0156
     30 N         144.4220  141.6277  163.8414 N.3     1  UNL1       -0.3231
     31 C         143.5857  141.3333  165.6424 C.3     1  UNL1        0.0282
     32 C         143.9708  142.3805  164.6398 C.3     1  UNL1        0.0029
     33 C         143.0957  142.5039  166.4421 C.3     1  UNL1        0.0029
     34 H         144.8680  141.3806  162.9580 H       1  UNL1        0.1188
     35 H         145.0380  142.2431  164.3728 H       1  UNL1        0.1188
@<TRIPOS>BOND
     1    16    17    1
     2    17    10    1
     3    10    11   ar
     4    11    12   ar
     5    12    13   ar
     6    13    14   ar
     7    14    15   ar
     8    15     1    1
     9     1     2   ar
    10     2     3   ar
    11     3     4   ar
    12     4    23    1
    13    25    23    1
    14    25    26    1
    15    26    27    1
    16    27    28    1
    17    28    29    1
    18    28    30    1
    19    28    31    1
    20    31    32    1
    21    31    33    1
    22     4     5   ar
    23     5    18    1
    24    18    19   am
    25    18    20    2
    26     5     6   ar
    27     6     7   ar
    28     7     8   ar
    29     8     9   ar
    30    15    10   ar
    31     9     1   ar
    32     8     3   ar
    33    31    25    1
    34    23    24    1
    35    30    34    1
    36    30    35    1
    37    19    21    1
    38    19    22    1
@<TRIPOS>MOLECULE
*****
 35 38 0 0 0
SMALL
GASTEIGER

@<TRIPOS>ATOM
      1 C         138.9294  139.7646  165.4088 C.ar    1  UNL1        0.0236
      2 C         140.2698  140.2313  165.8941 C.ar    1  UNL1        0.0220
      3 C         140.2492  140.2205  167.3939 C.ar    1  UNL1        0.0961
      4 C         141.2878  140.5806  168.4145 C.ar    1  UNL1        0.0685
      5 C         140.9732  140.4673  169.8768 C.ar    1  UNL1        0.0885
      6 C         139.6202  139.9939  170.3184 C.ar    1  UNL1        0.1263
      7 N         138.5816  139.6338  169.2978 N.ar    1  UNL1       -0.1633
      8 N         138.8961  139.7471  167.8356 N.ar    1  UNL1       -0.2270
      9 C         138.0804  139.4653  166.6087 C.ar    1  UNL1        0.1005
     10 C         138.8190  138.3594  163.2263 C.ar    1  UNL1        0.1387
     11 C         138.4009  138.2170  161.7928 C.ar    1  UNL1        0.0369
     12 C         137.6751  139.3372  161.1083 C.ar    1  UNL1        0.0031
     13 C         137.3675  140.5998  161.8573 C.ar    1  UNL1        0.0002
     14 C         137.7856  140.7422  163.2908 C.ar    1  UNL1        0.0031
     15 C         138.5113  139.6221  163.9753 C.ar    1  UNL1        0.0355
     16 C         141.0369  137.1342  163.8003 C.3     1  UNL1        0.2525
     17 O         139.5447  137.2392  163.9107 O.3     1  UNL1       -0.4714
     18 C         142.0118  140.8273  170.8975 C.2     1  UNL1        0.2456
     19 N         143.2051  139.9409  171.0982 N.am    1  UNL1       -0.3252
     20 O         141.8571  142.0739  171.7174 O.2     1  UNL1       -0.2703
     21 H         143.3066  139.1228  170.5601 H       1  UNL1        0.1453
     22 H         143.8868  140.1772  171.7681 H       1  UNL1        0.1453
     23 N         142.6409  141.0539  167.9729 N.pl3   1  UNL1       -0.3327
     24 H         143.1468  141.6882  168.5307 H       1  UNL1        0.1468
     25 C         143.2233  140.5610  166.6815 C.3     1  UNL1        0.0702
     26 C         143.4625  139.1268  166.3127 C.3     1  UNL1        0.0208
     27 C         144.0557  139.0951  164.9354 C.3     1  UNL1        0.0160
     28 C         144.1831  140.5096  164.4529 C.3     1  UNL1        0.0404
     29 C         144.7489  139.8715  163.2190 C.3     1  UNL1        0.0156
     30 N         144.4288  141.7907  163.7124 N.3     1  UNL1       -0.3231
     31 C         143.6686  141.4156  165.5320 C.3     1  UNL1        0.0282
     32 C         144.0218  142.5074  164.5659 C.3     1  UNL1        0.0029
     33 C         143.2280  142.5498  166.4092 C.3     1  UNL1        0.0029
     34 H         144.8327  141.5834  162.7990 H       1  UNL1        0.1188
     35 H         145.0746  142.3731  164.2455 H       1  UNL1        0.1188
@<TRIPOS>BOND
     1    16    17    1
     2    17    10    1
     3    10    11   ar
     4    11    12   ar
     5    12    13   ar
     6    13    14   ar
     7    14    15   ar
     8    15     1    1
     9     1     2   ar
    10     2     3   ar
    11     3     4   ar
    12     4    23    1
    13    25    23    1
    14    25    26    1
    15    26    27    1
    16    27    28    1
    17    28    29    1
    18    28    30    1
    19    28    31    1
    20    31    32    1
    21    31    33    1
    22     4     5   ar
    23     5    18    1
    24    18    19   am
    25    18    20    2
    26     5     6   ar
    27     6     7   ar
    28     7     8   ar
    29     8     9   ar
    30    15    10   ar
    31     9     1   ar
    32     8     3   ar
    33    31    25    1
    34    23    24    1
    35    30    34    1
    36    30    35    1
    37    19    21    1
    38    19    22    1
@<TRIPOS>MOLECULE
*****
 35 38 0 0 0
SMALL
GASTEIGER

@<TRIPOS>ATOM
      1 C         142.6232  139.1021  163.9164 C.ar    1  UNL1        0.0236
      2 C         141.4180  139.7207  164.5605 C.ar    1  UNL1        0.0220
      3 C         141.6012  139.6529  166.0477 C.ar    1  UNL1        0.0961
      4 C         140.7378  140.1072  167.1870 C.ar    1  UNL1        0.0685
      5 C         141.1928  139.9010  168.6014 C.ar    1  UNL1        0.0885
      6 C         142.5111  139.2406  168.8765 C.ar    1  UNL1        0.1263
      7 N         143.3745  138.7862  167.7371 N.ar    1  UNL1       -0.1633
      8 N         142.9195  138.9924  166.3228 N.ar    1  UNL1       -0.2270
      9 C         143.5512  138.6520  165.0055 C.ar    1  UNL1        0.1005
     10 C         141.9996  138.0346  161.6313 C.ar    1  UNL1        0.1387
     11 C         142.2355  137.8914  160.1569 C.ar    1  UNL1        0.0369
     12 C         143.3308  138.6723  159.4931 C.ar    1  UNL1        0.0031
     13 C         144.1902  139.5965  160.3038 C.ar    1  UNL1        0.0002
     14 C         143.9543  139.7397  161.7782 C.ar    1  UNL1        0.0031
     15 C         142.8590  138.9588  162.4420 C.ar    1  UNL1        0.0355
     16 C         139.4966  137.7713  162.2761 C.3     1  UNL1        0.2525
     17 O         140.9043  137.2537  162.2949 O.3     1  UNL1       -0.4714
     18 C         140.3293  140.3554  169.7408 C.2     1  UNL1        0.2456
     19 N         140.1137  139.4576  170.9229 N.am    1  UNL1       -0.3252
     20 O         139.6815  141.7077  169.6981 O.2     1  UNL1       -0.2703
     21 H         140.5389  138.5701  170.9510 H       1  UNL1        0.1453
     22 H         139.5471  139.7558  171.6707 H       1  UNL1        0.1453
     23 N         139.4194  140.7678  166.9120 N.pl3   1  UNL1       -0.3327
     24 H         138.5993  140.4254  167.3357 H       1  UNL1        0.1468
     25 C         139.3505  141.9501  165.9915 C.3     1  UNL1        0.0702
     26 C         140.1180  143.2301  166.1413 C.3     1  UNL1        0.0208
     27 C         139.7439  144.1311  165.0019 C.3     1  UNL1        0.0160
     28 C         138.7451  143.4079  164.1479 C.3     1  UNL1        0.0404
     29 C         138.7810  144.6593  163.3216 C.3     1  UNL1        0.0156
     30 N         137.7538  142.9463  163.1211 N.3     1  UNL1       -0.3231
     31 C         138.5019  142.0600  164.7594 C.3     1  UNL1        0.0282
     32 C         137.5615  141.8802  163.6047 C.3     1  UNL1        0.0029
     33 C         138.0622  140.6745  165.1296 C.3     1  UNL1        0.0029
     34 H         137.6191  143.6795  162.4249 H       1  UNL1        0.1188
     35 H         136.8640  142.7413  163.5756 H       1  UNL1        0.1188
@<TRIPOS>BOND
     1    16    17    1
     2    17    10    1
     3    10    11   ar
     4    11    12   ar
     5    12    13   ar
     6    13    14   ar
     7    14    15   ar
     8    15     1    1
     9     1     2   ar
    10     2     3   ar
    11     3     4   ar
    12     4    23    1
    13    25    23    1
    14    25    26    1
    15    26    27    1
    16    27    28    1
    17    28    29    1
    18    28    30    1
    19    28    31    1
    20    31    32    1
    21    31    33    1
    22     4     5   ar
    23     5    18    1
    24    18    19   am
    25    18    20    2
    26     5     6   ar
    27     6     7   ar
    28     7     8   ar
    29     8     9   ar
    30    15    10   ar
    31     9     1   ar
    32     8     3   ar
    33    31    25    1
    34    23    24    1
    35    30    34    1
    36    30    35    1
    37    19    21    1
    38    19    22    1
@<TRIPOS>MOLECULE
*****
 35 38 0 0 0
SMALL
GASTEIGER

@<TRIPOS>ATOM
      1 C         139.1126  140.9284  162.2302 C.ar    1  UNL1        0.0236
      2 C         140.1466  142.0108  162.1341 C.ar    1  UNL1        0.0220
      3 C         139.9987  142.6757  160.7977 C.ar    1  UNL1        0.0961
      4 C         140.7435  143.8059  160.1511 C.ar    1  UNL1        0.0685
      5 C         140.3629  144.2645  158.7745 C.ar    1  UNL1        0.0885
      6 C         139.2376  143.5931  158.0447 C.ar    1  UNL1        0.1263
      7 N         138.4929  142.4629  158.6913 N.ar    1  UNL1       -0.1633
      8 N         138.8734  142.0042  160.0678 N.ar    1  UNL1       -0.2270
      9 C         138.3257  140.9243  160.9531 C.ar    1  UNL1        0.1005
     10 C         139.2652  138.5599  163.2870 C.ar    1  UNL1        0.1387
     11 C         139.0549  137.6427  164.4552 C.ar    1  UNL1        0.0369
     12 C         138.4817  138.1765  165.7344 C.ar    1  UNL1        0.0031
     13 C         138.1188  139.6277  165.8456 C.ar    1  UNL1        0.0002
     14 C         138.3291  140.5450  164.6774 C.ar    1  UNL1        0.0031
     15 C         138.9023  140.0111  163.3982 C.ar    1  UNL1        0.0355
     16 C         141.3254  137.9403  161.8304 C.3     1  UNL1        0.2525
     17 O         139.8384  138.0260  162.0079 O.3     1  UNL1       -0.4714
     18 C         141.1077  145.3947  158.1279 C.2     1  UNL1        0.2456
     19 N         140.3561  146.4660  157.3948 N.am    1  UNL1       -0.3252
     20 O         142.6040  145.4536  158.2144 O.2     1  UNL1       -0.2703
     21 H         139.3740  146.4274  157.3381 H       1  UNL1        0.1453
     22 H         140.8449  147.2078  156.9704 H       1  UNL1        0.1453
     23 N         141.8689  144.4774  160.8810 N.pl3   1  UNL1       -0.3327
     24 H         141.8774  145.4570  160.9783 H       1  UNL1        0.1468
     25 C         142.9813  143.6563  161.4626 C.3     1  UNL1        0.0702
     26 C         143.7838  142.6182  160.7358 C.3     1  UNL1        0.0208
     27 C         144.7850  142.0494  161.6971 C.3     1  UNL1        0.0160
     28 C         144.6012  142.7360  163.0180 C.3     1  UNL1        0.0404
     29 C         145.7267  141.8476  163.4584 C.3     1  UNL1        0.0156
     30 N         144.6527  143.2368  164.4310 N.3     1  UNL1       -0.3231
     31 C         143.4865  143.7291  162.8731 C.3     1  UNL1        0.0282
     32 C         143.7710  144.0224  164.3164 C.3     1  UNL1        0.0029
     33 C         142.4312  144.7835  163.0298 C.3     1  UNL1        0.0029
     34 H         145.3865  142.7439  164.9399 H       1  UNL1        0.1188
     35 H         143.7541  143.0701  164.8837 H       1  UNL1        0.1188
@<TRIPOS>BOND
     1    16    17    1
     2    17    10    1
     3    10    11   ar
     4    11    12   ar
     5    12    13   ar
     6    13    14   ar
     7    14    15   ar
     8    15     1    1
     9     1     2   ar
    10     2     3   ar
    11     3     4   ar
    12     4    23    1
    13    25    23    1
    14    25    26    1
    15    26    27    1
    16    27    28    1
    17    28    29    1
    18    28    30    1
    19    28    31    1
    20    31    32    1
    21    31    33    1
    22     4     5   ar
    23     5    18    1
    24    18    19   am
    25    18    20    2
    26     5     6   ar
    27     6     7   ar
    28     7     8   ar
    29     8     9   ar
    30    15    10   ar
    31     9     1   ar
    32     8     3   ar
    33    31    25    1
    34    23    24    1
    35    30    34    1
    36    30    35    1
    37    19    21    1
    38    19    22    1
@<TRIPOS>MOLECULE
*****
 35 38 0 0 0
SMALL
GASTEIGER

@<TRIPOS>ATOM
      1 C         142.9743  139.2684  164.5217 C.ar    1  UNL1        0.0236
      2 C         141.8854  140.0905  165.1451 C.ar    1  UNL1        0.0220
      3 C         141.9181  139.8561  166.6263 C.ar    1  UNL1        0.0961
      4 C         141.0812  140.3982  167.7469 C.ar    1  UNL1        0.0685
      5 C         141.3535  139.9735  169.1596 C.ar    1  UNL1        0.0885
      6 C         142.4624  139.0067  169.4515 C.ar    1  UNL1        0.1263
      7 N         143.2993  138.4646  168.3310 N.ar    1  UNL1       -0.1633
      8 N         143.0272  138.8893  166.9183 N.ar    1  UNL1       -0.2270
      9 C         143.6799  138.5261  165.6176 C.ar    1  UNL1        0.1005
     10 C         144.0149  140.3409  162.3963 C.ar    1  UNL1        0.1387
     11 C         144.3409  140.2730  160.9337 C.ar    1  UNL1        0.0369
     12 C         143.9524  139.0650  160.1339 C.ar    1  UNL1        0.0031
     13 C         143.2379  137.9247  160.7967 C.ar    1  UNL1        0.0002
     14 C         142.9119  137.9926  162.2593 C.ar    1  UNL1        0.0031
     15 C         143.3004  139.2006  163.0591 C.ar    1  UNL1        0.0355
     16 C         145.7782  141.6464  163.7879 C.3     1  UNL1        0.2525
     17 O         144.4034  141.5490  163.1961 O.3     1  UNL1       -0.4714
     18 C         140.5165  140.5156  170.2802 C.2     1  UNL1        0.2456
     19 N         139.8407  139.5757  171.2341 N.am    1  UNL1       -0.3252
     20 O         140.3555  141.9976  170.4469 O.2     1  UNL1       -0.2703
     21 H         139.9464  138.6031  171.1246 H       1  UNL1        0.1453
     22 H         139.2914  139.9315  171.9696 H       1  UNL1        0.1453
     23 N         139.9722  141.3651  167.4549 N.pl3   1  UNL1       -0.3327
     24 H         139.7351  142.0561  168.1148 H       1  UNL1        0.1468
     25 C         139.2244  141.2790  166.1575 C.3     1  UNL1        0.0702
     26 C         138.4813  140.0807  165.6459 C.3     1  UNL1        0.0208
     27 C         137.8861  140.4372  164.3161 C.3     1  UNL1        0.0160
     28 C         138.2613  141.8559  164.0057 C.3     1  UNL1        0.0404
     29 C         137.4784  141.6220  162.7478 C.3     1  UNL1        0.0156
     30 N         138.4728  143.2257  163.4323 N.3     1  UNL1       -0.3231
     31 C         139.0884  142.3762  165.1437 C.3     1  UNL1        0.0282
     32 C         139.1271  143.6373  164.3324 C.3     1  UNL1        0.0029
     33 C         139.9236  143.1601  166.1121 C.3     1  UNL1        0.0029
     34 H         138.0018  143.2931  162.5301 H       1  UNL1        0.1188
     35 H         139.4715  143.3917  163.3078 H       1  UNL1        0.1188
@<TRIPOS>BOND
     1    16    17    1
     2    17    10    1
     3    10    11   ar
     4    11    12   ar
     5    12    13   ar
     6    13    14   ar
     7    14    15   ar
     8    15     1    1
     9     1     2   ar
    10     2     3   ar
    11     3     4   ar
    12     4    23    1
    13    25    23    1
    14    25    26    1
    15    26    27    1
    16    27    28    1
    17    28    29    1
    18    28    30    1
    19    28    31    1
    20    31    32    1
    21    31    33    1
    22     4     5   ar
    23     5    18    1
    24    18    19   am
    25    18    20    2
    26     5     6   ar
    27     6     7   ar
    28     7     8   ar
    29     8     9   ar
    30    15    10   ar
    31     9     1   ar
    32     8     3   ar
    33    31    25    1
    34    23    24    1
    35    30    34    1
    36    30    35    1
    37    19    21    1
    38    19    22    1
@<TRIPOS>MOLECULE
*****
 35 38 0 0 0
SMALL
GASTEIGER

@<TRIPOS>ATOM
      1 C         141.9655  139.5013  165.6840 C.ar    1  UNL1        0.0236
      2 C         142.4286  140.6115  164.7880 C.ar    1  UNL1        0.0220
      3 C         142.7026  140.0298  163.4328 C.ar    1  UNL1        0.0961
      4 C         143.1816  140.6485  162.1531 C.ar    1  UNL1        0.0685
      5 C         143.3669  139.7974  160.9319 C.ar    1  UNL1        0.0885
      6 C         143.0731  138.3277  160.9904 C.ar    1  UNL1        0.1263
      7 N         142.5941  137.7089  162.2700 N.ar    1  UNL1       -0.1633
      8 N         142.4088  138.5600  163.4913 N.ar    1  UNL1       -0.2270
      9 C         141.9533  138.2333  164.8826 C.ar    1  UNL1        0.1005
     10 C         140.1896  140.0523  167.4985 C.ar    1  UNL1        0.1387
     11 C         139.8062  140.1864  168.9425 C.ar    1  UNL1        0.0369
     12 C         140.8150  139.9035  170.0158 C.ar    1  UNL1        0.0031
     13 C         142.2074  139.4865  169.6453 C.ar    1  UNL1        0.0002
     14 C         142.5909  139.3525  168.2013 C.ar    1  UNL1        0.0031
     15 C         141.5820  139.6353  167.1279 C.ar    1  UNL1        0.0355
     16 C         138.2198  139.2654  165.9982 C.3     1  UNL1        0.2525
     17 O         139.1807  140.3352  166.4252 O.3     1  UNL1       -0.4714
     18 C         143.8459  140.4162  159.6521 C.2     1  UNL1        0.2456
     19 N         143.7064  139.6685  158.3592 N.am    1  UNL1       -0.3252
     20 O         144.4645  141.7827  159.6653 O.2     1  UNL1       -0.2703
     21 H         143.3003  138.7717  158.3506 H       1  UNL1        0.1453
     22 H         144.0207  140.0747  157.5193 H       1  UNL1        0.1453
     23 N         143.4754  142.1184  162.0946 N.pl3   1  UNL1       -0.3327
     24 H         144.4049  142.4373  162.1542 H       1  UNL1        0.1468
     25 C         142.3529  143.1021  161.9452 C.3     1  UNL1        0.0702
     26 C         141.2358  143.0203  160.9476 C.3     1  UNL1        0.0208
     27 C         140.3430  144.2080  161.1530 C.3     1  UNL1        0.0160
     28 C         140.9083  145.0239  162.2776 C.3     1  UNL1        0.0404
     29 C         139.7330  145.9170  162.0115 C.3     1  UNL1        0.0156
     30 N         141.2280  146.0264  163.3466 N.3     1  UNL1       -0.3231
     31 C         142.1506  144.3404  162.7672 C.3     1  UNL1        0.0282
     32 C         142.2106  145.4859  163.7339 C.3     1  UNL1        0.0029
     33 C         143.4053  143.8964  163.4589 C.3     1  UNL1        0.0029
     34 H         140.5212  146.7618  163.3453 H       1  UNL1        0.1188
     35 H         142.1447  146.4356  163.1658 H       1  UNL1        0.1188
@<TRIPOS>BOND
     1    16    17    1
     2    17    10    1
     3    10    11   ar
     4    11    12   ar
     5    12    13   ar
     6    13    14   ar
     7    14    15   ar
     8    15     1    1
     9     1     2   ar
    10     2     3   ar
    11     3     4   ar
    12     4    23    1
    13    25    23    1
    14    25    26    1
    15    26    27    1
    16    27    28    1
    17    28    29    1
    18    28    30    1
    19    28    31    1
    20    31    32    1
    21    31    33    1
    22     4     5   ar
    23     5    18    1
    24    18    19   am
    25    18    20    2
    26     5     6   ar
    27     6     7   ar
    28     7     8   ar
    29     8     9   ar
    30    15    10   ar
    31     9     1   ar
    32     8     3   ar
    33    31    25    1
    34    23    24    1
    35    30    34    1
    36    30    35    1
    37    19    21    1
    38    19    22    1
@<TRIPOS>MOLECULE
*****
 35 38 0 0 0
SMALL
GASTEIGER

@<TRIPOS>ATOM
      1 C         141.6192  140.4776  166.9994 C.ar    1  UNL1        0.0236
      2 C         140.6196  140.8325  165.9389 C.ar    1  UNL1        0.0220
      3 C         140.5871  139.7142  164.9397 C.ar    1  UNL1        0.0961
      4 C         139.7921  139.5134  163.6837 C.ar    1  UNL1        0.0685
      5 C         139.9766  138.2663  162.8707 C.ar    1  UNL1        0.0885
      6 C         140.9560  137.2203  163.3137 C.ar    1  UNL1        0.1263
      7 N         141.7510  137.4211  164.5697 N.ar    1  UNL1       -0.1633
      8 N         141.5666  138.6681  165.3827 N.ar    1  UNL1       -0.2270
      9 C         142.2045  139.1399  166.6557 C.ar    1  UNL1        0.1005
     10 C         140.9203  141.6531  169.2084 C.ar    1  UNL1        0.1387
     11 C         141.2729  142.4890  170.4030 C.ar    1  UNL1        0.0369
     12 C         142.6768  142.9854  170.5831 C.ar    1  UNL1        0.0031
     13 C         143.7283  142.6458  169.5686 C.ar    1  UNL1        0.0002
     14 C         143.3757  141.8099  168.3741 C.ar    1  UNL1        0.0031
     15 C         141.9717  141.3135  168.1940 C.ar    1  UNL1        0.0355
     16 C         138.8714  140.3262  170.0981 C.3     1  UNL1        0.2525
     17 O         139.5163  141.1567  169.0284 O.3     1  UNL1       -0.4714
     18 C         139.1816  138.0654  161.6146 C.2     1  UNL1        0.2456
     19 N         137.7618  137.5878  161.6939 N.am    1  UNL1       -0.3252
     20 O         139.8063  138.3421  160.2793 O.2     1  UNL1       -0.2703
     21 H         137.3518  137.4062  162.5704 H       1  UNL1        0.1453
     22 H         137.2400  137.4560  160.8696 H       1  UNL1        0.1453
     23 N         138.8126  140.5595  163.2406 N.pl3   1  UNL1       -0.3327
     24 H         137.8470  140.4152  163.3678 H       1  UNL1        0.1468
     25 C         139.3042  141.8254  162.6036 C.3     1  UNL1        0.0702
     26 C         140.5209  141.9615  161.7370 C.3     1  UNL1        0.0208
     27 C         140.6342  143.3977  161.3193 C.3     1  UNL1        0.0160
     28 C         139.4874  144.1492  161.9277 C.3     1  UNL1        0.0404
     29 C         140.0962  145.3296  161.2306 C.3     1  UNL1        0.0156
     30 N         138.4679  145.1474  162.3903 N.3     1  UNL1       -0.3231
     31 C         138.6655  143.1775  162.7215 C.3     1  UNL1        0.0282
     32 C         137.8178  144.3789  163.0182 C.3     1  UNL1        0.0029
     33 C         137.6663  142.4569  163.5773 C.3     1  UNL1        0.0029
     34 H         138.6980  146.0674  162.0147 H       1  UNL1        0.1188
     35 H         138.4685  145.1865  163.4096 H       1  UNL1        0.1188
@<TRIPOS>BOND
     1    16    17    1
     2    17    10    1
     3    10    11   ar
     4    11    12   ar
     5    12    13   ar
     6    13    14   ar
     7    14    15   ar
     8    15     1    1
     9     1     2   ar
    10     2     3   ar
    11     3     4   ar
    12     4    23    1
    13    25    23    1
    14    25    26    1
    15    26    27    1
    16    27    28    1
    17    28    29    1
    18    28    30    1
    19    28    31    1
    20    31    32    1
    21    31    33    1
    22     4     5   ar
    23     5    18    1
    24    18    19   am
    25    18    20    2
    26     5     6   ar
    27     6     7   ar
    28     7     8   ar
    29     8     9   ar
    30    15    10   ar
    31     9     1   ar
    32     8     3   ar
    33    31    25    1
    34    23    24    1
    35    30    34    1
    36    30    35    1
    37    19    21    1
    38    19    22    1
@<TRIPOS>MOLECULE
*****
 35 38 0 0 0
SMALL
GASTEIGER

@<TRIPOS>ATOM
      1 C         139.9423  139.6875  165.9744 C.ar    1  UNL1        0.0236
      2 C         139.9387  140.7365  164.9022 C.ar    1  UNL1        0.0220
      3 C         139.4800  140.0939  163.6268 C.ar    1  UNL1        0.0961
      4 C         139.2810  140.6388  162.2435 C.ar    1  UNL1        0.0685
      5 C         138.8021  139.7375  161.1442 C.ar    1  UNL1        0.0885
      6 C         138.5223  138.2915  161.4281 C.ar    1  UNL1        0.1263
      7 N         138.7213  137.7467  162.8114 N.ar    1  UNL1       -0.1633
      8 N         139.2001  138.6479  163.9107 N.ar    1  UNL1       -0.2270
      9 C         139.4858  138.3967  165.3617 C.ar    1  UNL1        0.1005
     10 C         141.7832  139.9273  167.7920 C.ar    1  UNL1        0.1387
     11 C         142.1745  140.1330  169.2254 C.ar    1  UNL1        0.0369
     12 C         141.1163  140.3047  170.2746 C.ar    1  UNL1        0.0031
     13 C         139.6668  140.2707  169.8904 C.ar    1  UNL1        0.0002
     14 C         139.2755  140.0650  168.4569 C.ar    1  UNL1        0.0031
     15 C         140.3337  139.8933  167.4078 C.ar    1  UNL1        0.0355
     16 C         143.4271  138.3993  166.4832 C.3     1  UNL1        0.2525
     17 O         142.8415  139.7556  166.7429 O.3     1  UNL1       -0.4714
     18 C         138.6031  140.2823  159.7608 C.2     1  UNL1        0.2456
     19 N         137.3125  140.0374  159.0367 N.am    1  UNL1       -0.3252
     20 O         139.6947  141.0722  159.1016 O.2     1  UNL1       -0.2703
     21 H         136.5960  139.5190  159.4693 H       1  UNL1        0.1453
     22 H         137.1819  140.3950  158.1288 H       1  UNL1        0.1453
     23 N         139.5609  142.0848  161.9594 N.pl3   1  UNL1       -0.3327
     24 H         138.8305  142.6812  161.6762 H       1  UNL1        0.1468
     25 C         140.9535  142.6222  162.1068 C.3     1  UNL1        0.0702
     26 C         142.2145  141.9337  161.6757 C.3     1  UNL1        0.0208
     27 C         143.3700  142.8283  162.0137 C.3     1  UNL1        0.0160
     28 C         142.8232  144.0699  162.6537 C.3     1  UNL1        0.0404
     29 C         144.2654  144.4745  162.7335 C.3     1  UNL1        0.0156
     30 N         142.5779  145.3959  163.3104 N.3     1  UNL1       -0.3231
     31 C         141.3297  143.9425  162.7113 C.3     1  UNL1        0.0282
     32 C         141.3966  145.2952  163.3560 C.3     1  UNL1        0.0029
     33 C         139.8503  144.0978  162.9036 C.3     1  UNL1        0.0029
     34 H         143.4685  145.8680  163.4664 H       1  UNL1        0.1188
     35 H         142.1087  145.2510  164.2044 H       1  UNL1        0.1188
@<TRIPOS>BOND
     1    16    17    1
     2    17    10    1
     3    10    11   ar
     4    11    12   ar
     5    12    13   ar
     6    13    14   ar
     7    14    15   ar
     8    15     1    1
     9     1     2   ar
    10     2     3   ar
    11     3     4   ar
    12     4    23    1
    13    25    23    1
    14    25    26    1
    15    26    27    1
    16    27    28    1
    17    28    29    1
    18    28    30    1
    19    28    31    1
    20    31    32    1
    21    31    33    1
    22     4     5   ar
    23     5    18    1
    24    18    19   am
    25    18    20    2
    26     5     6   ar
    27     6     7   ar
    28     7     8   ar
    29     8     9   ar
    30    15    10   ar
    31     9     1   ar
    32     8     3   ar
    33    31    25    1
    34    23    24    1
    35    30    34    1
    36    30    35    1
    37    19    21    1
    38    19    22    1
@<TRIPOS>MOLECULE
*****
 35 38 0 0 0
SMALL
GASTEIGER

@<TRIPOS>ATOM
      1 C         142.9716  141.7951  164.9366 C.ar    1  UNL1        0.0236
      2 C         141.7821  140.9281  165.2255 C.ar    1  UNL1        0.0220
      3 C         141.5261  140.9698  166.7029 C.ar    1  UNL1        0.0961
      4 C         140.4871  140.3102  167.5605 C.ar    1  UNL1        0.0685
      5 C         140.4795  140.5433  169.0423 C.ar    1  UNL1        0.0885
      6 C         141.5107  141.4360  169.6664 C.ar    1  UNL1        0.1263
      7 N         142.5496  142.0956  168.8088 N.ar    1  UNL1       -0.1633
      8 N         142.5573  141.8625  167.3271 N.ar    1  UNL1       -0.2270
      9 C         143.4507  142.3726  166.2354 C.ar    1  UNL1        0.1005
     10 C         143.8850  140.8859  162.6807 C.ar    1  UNL1        0.1387
     11 C         144.4893  141.1323  161.3301 C.ar    1  UNL1        0.0369
     12 C         144.7845  142.5339  160.8847 C.ar    1  UNL1        0.0031
     13 C         144.4753  143.6893  161.7900 C.ar    1  UNL1        0.0002
     14 C         143.8710  143.4429  163.1406 C.ar    1  UNL1        0.0031
     15 C         143.5759  142.0413  163.5860 C.ar    1  UNL1        0.0355
     16 C         143.7677  138.3410  162.1714 C.3     1  UNL1        0.2525
     17 O         143.5900  139.4843  163.1260 O.3     1  UNL1       -0.4714
     18 C         139.4405  139.8837  169.9000 C.2     1  UNL1        0.2456
     19 N         139.7769  139.4718  171.3025 N.am    1  UNL1       -0.3252
     20 O         138.0651  139.6360  169.3550 O.2     1  UNL1       -0.2703
     21 H         140.6796  139.6343  171.6602 H       1  UNL1        0.1453
     22 H         139.0950  139.0388  171.8654 H       1  UNL1        0.1453
     23 N         139.4558  139.4174  166.9364 N.pl3   1  UNL1       -0.3327
     24 H         139.1420  138.6172  167.4165 H       1  UNL1        0.1468
     25 C         138.9027  139.7439  165.5809 C.3     1  UNL1        0.0702
     26 C         138.2879  141.0490  165.1705 C.3     1  UNL1        0.0208
     27 C         137.8725  140.9343  163.7338 C.3     1  UNL1        0.0160
     28 C         138.2306  139.5583  163.2562 C.3     1  UNL1        0.0404
     29 C         137.6430  140.0268  161.9580 C.3     1  UNL1        0.0156
     30 N         138.4658  138.2801  162.5072 N.3     1  UNL1       -0.3231
     31 C         138.8673  138.8225  164.3977 C.3     1  UNL1        0.0282
     32 C         138.9695  137.6981  163.4101 C.3     1  UNL1        0.0029
     33 C         139.5254  137.8517  165.3329 C.3     1  UNL1        0.0029
     34 H         138.1246  138.3786  161.5511 H       1  UNL1        0.1188
     35 H         137.9683  137.5189  162.9691 H       1  UNL1        0.1188
@<TRIPOS>BOND
     1    16    17    1
     2    17    10    1
     3    10    11   ar
     4    11    12   ar
     5    12    13   ar
     6    13    14   ar
     7    14    15   ar
     8    15     1    1
     9     1     2   ar
    10     2     3   ar
    11     3     4   ar
    12     4    23    1
    13    25    23    1
    14    25    26    1
    15    26    27    1
    16    27    28    1
    17    28    29    1
    18    28    30    1
    19    28    31    1
    20    31    32    1
    21    31    33    1
    22     4     5   ar
    23     5    18    1
    24    18    19   am
    25    18    20    2
    26     5     6   ar
    27     6     7   ar
    28     7     8   ar
    29     8     9   ar
    30    15    10   ar
    31     9     1   ar
    32     8     3   ar
    33    31    25    1
    34    23    24    1
    35    30    34    1
    36    30    35    1
    37    19    21    1
    38    19    22    1
