@<TRIPOS>MOLECULE
*****
 35 39 0 0 0
SMALL
GASTEIGER

@<TRIPOS>ATOM
      1 N         140.0072  139.6623  163.9409 N.3     1  UNL1       -0.2647
      2 C         140.6100  139.2656  162.6258 C.3     1  UNL1        0.1037
      3 C         140.2128  139.9855  161.3713 C.3     1  UNL1        0.1470
      4 C         139.8158  140.7053  160.1167 C.3     1  UNL1        0.1035
      5 N         138.8159  141.8219  160.1771 N.3     1  UNL1       -0.2673
      6 C         138.2132  142.2186  161.4921 C.3     1  UNL1        0.1035
      7 C         138.6103  141.4987  162.7468 C.3     1  UNL1        0.1470
      8 C         139.0074  140.7788  164.0013 C.3     1  UNL1        0.1037
      9 O         139.2130  141.1020  161.4317 O.3     1  UNL1       -0.3530
     10 C         140.4043  138.9423  165.1956 C.3     1  UNL1        0.1002
     11 C         137.7188  138.3748  166.9607 C.3     1  UNL1        0.0518
     12 C         138.8528  139.2779  167.3462 C.2     1  UNL1        0.0564
     13 N         138.9514  140.0787  168.6107 N.2     1  UNL1       -0.2503
     14 C         140.2468  140.8345  168.5809 C.2     1  UNL1        0.0770
     15 C         140.8778  141.7834  169.5562 C.2     1  UNL1        0.0184
     16 C         142.2108  142.3986  169.2486 C.2     1  UNL1       -0.0027
     17 C         142.9127  142.0649  167.9656 C.2     1  UNL1       -0.0213
     18 C         142.2817  141.1160  166.9903 C.3     1  UNL1        0.0536
     19 C         140.9487  140.5008  167.2979 C.2     1  UNL1       -0.0017
     20 C         140.0872  139.5388  166.5349 C.2     1  UNL1        0.0052
     21 C         138.4188  142.5419  158.9224 C.3     1  UNL1        0.0913
     22 C         139.3718  143.5026  158.2755 C.3     1  UNL1        0.1087
     23 N         139.7960  144.7434  159.0039 N.3     1  UNL1       -0.1780
     24 H         138.9433  145.2039  159.3221 H       1  UNL1        0.1488
     25 S         140.7031  144.6412  160.1941 S.O2    1  UNL1        0.0603
     26 O         141.7014  143.8851  159.3684 O.2     1  UNL1       -0.1530
     27 O         139.7048  145.3974  161.0198 O.2     1  UNL1       -0.1530
     28 C         141.6102  144.5391  161.3845 C.ar    1  UNL1        0.1220
     29 C         141.2420  145.2214  162.6686 C.ar    1  UNL1        0.0206
     30 C         142.1490  145.1193  163.8589 C.ar    1  UNL1        0.0116
     31 C         143.4242  144.3350  163.7651 C.ar    1  UNL1        0.0685
     32 C         143.7923  143.6528  162.4809 C.ar    1  UNL1        0.0116
     33 C         142.8853  143.7548  161.2906 C.ar    1  UNL1        0.0206
     34 C         144.3312  144.2330  164.9554 C.1     1  UNL1        0.1004
     35 N         145.2383  144.1310  166.1458 N.1     1  UNL1       -0.1908
@<TRIPOS>BOND
     1    11    12    1
     2    12    13    2
     3    13    14    1
     4    14    15    2
     5    15    16    1
     6    16    17    2
     7    17    18    1
     8    18    19    1
     9    19    20    2
    10    20    10    1
    11    10     1    1
    12     1     2    1
    13     2     3    1
    14     3     4    1
    15     4     5    1
    16     5    21    1
    17    21    22    1
    18    22    23    1
    19    23    25    1
    20    25    26    2
    21    25    27    2
    22    25    28    1
    23    28    29   ar
    24    29    30   ar
    25    30    31   ar
    26    31    34    1
    27    34    35    3
    28    31    32   ar
    29    32    33   ar
    30     5     6    1
    31     6     7    1
    32     7     8    1
    33     7     9    1
    34    20    12    1
    35     8     1    1
    36    19    14    1
    37     9     3    1
    38    33    28   ar
    39    23    24    1
@<TRIPOS>MOLECULE
*****
 35 39 0 0 0
SMALL
GASTEIGER

@<TRIPOS>ATOM
      1 N         143.6969  140.3316  164.1362 N.3     1  UNL1       -0.2647
      2 C         143.3626  139.4749  162.9512 C.3     1  UNL1        0.1037
      3 C         143.5578  140.0068  161.5623 C.3     1  UNL1        0.1470
      4 C         143.7530  140.5386  160.1735 C.3     1  UNL1        0.1035
      5 N         144.2825  141.9271  159.9696 N.3     1  UNL1       -0.2673
      6 C         144.6168  142.7838  161.1546 C.3     1  UNL1        0.1035
      7 C         144.4217  142.2520  162.5435 C.3     1  UNL1        0.1470
      8 C         144.2264  141.7201  163.9324 C.3     1  UNL1        0.1037
      9 O         144.0873  141.3953  161.3585 O.3     1  UNL1       -0.3530
     10 C         143.5017  139.7997  165.5252 C.3     1  UNL1        0.1002
     11 C         143.0064  142.0624  167.8240 C.3     1  UNL1        0.0518
     12 C         141.9857  141.0921  167.3074 C.2     1  UNL1        0.0564
     13 N         140.5581  140.9916  167.7567 N.2     1  UNL1       -0.2503
     14 C         139.9035  139.8894  166.9778 C.2     1  UNL1        0.0770
     15 C         138.5081  139.3395  166.9958 C.2     1  UNL1        0.0184
     16 C         138.1357  138.2090  166.0831 C.2     1  UNL1       -0.0027
     17 C         139.1587  137.6284  165.1523 C.2     1  UNL1       -0.0213
     18 C         140.5541  138.1783  165.1343 C.3     1  UNL1        0.0536
     19 C         140.9265  139.3088  166.0470 C.2     1  UNL1       -0.0017
     20 C         142.2134  140.0521  166.2508 C.2     1  UNL1        0.0052
     21 C         144.4777  142.4591  158.5807 C.3     1  UNL1        0.0913
     22 C         143.4945  143.4356  158.0066 C.3     1  UNL1        0.1087
     23 N         142.0238  143.2333  158.2217 N.3     1  UNL1       -0.1780
     24 H         141.8357  142.2442  158.0587 H       1  UNL1        0.1488
     25 S         141.4045  143.5799  159.5431 S.O2    1  UNL1        0.0603
     26 O         140.7902  142.2132  159.6136 O.2     1  UNL1       -0.1530
     27 O         142.0187  144.9465  159.4726 O.2     1  UNL1       -0.1530
     28 C         140.7851  143.9265  160.8647 C.ar    1  UNL1        0.1220
     29 C         140.1575  145.2735  161.0684 C.ar    1  UNL1        0.0206
     30 C         139.5381  145.6202  162.3899 C.ar    1  UNL1        0.0116
     31 C         139.5465  144.6198  163.5075 C.ar    1  UNL1        0.0685
     32 C         140.1742  143.2728  163.3037 C.ar    1  UNL1        0.0116
     33 C         140.7935  142.9261  161.9823 C.ar    1  UNL1        0.0206
     34 C         138.9271  144.9665  164.8289 C.1     1  UNL1        0.1004
     35 N         138.3079  145.3133  166.1504 N.1     1  UNL1       -0.1908
@<TRIPOS>BOND
     1    11    12    1
     2    12    13    2
     3    13    14    1
     4    14    15    2
     5    15    16    1
     6    16    17    2
     7    17    18    1
     8    18    19    1
     9    19    20    2
    10    20    10    1
    11    10     1    1
    12     1     2    1
    13     2     3    1
    14     3     4    1
    15     4     5    1
    16     5    21    1
    17    21    22    1
    18    22    23    1
    19    23    25    1
    20    25    26    2
    21    25    27    2
    22    25    28    1
    23    28    29   ar
    24    29    30   ar
    25    30    31   ar
    26    31    34    1
    27    34    35    3
    28    31    32   ar
    29    32    33   ar
    30     5     6    1
    31     6     7    1
    32     7     8    1
    33     7     9    1
    34    20    12    1
    35     8     1    1
    36    19    14    1
    37     9     3    1
    38    33    28   ar
    39    23    24    1
@<TRIPOS>MOLECULE
*****
 35 39 0 0 0
SMALL
GASTEIGER

@<TRIPOS>ATOM
      1 N         143.3259  141.8946  165.1868 N.3     1  UNL1       -0.2647
      2 C         144.5737  141.4242  164.5001 C.3     1  UNL1        0.1037
      3 C         144.5537  141.1254  163.0303 C.3     1  UNL1        0.1470
      4 C         144.5337  140.8266  161.5605 C.3     1  UNL1        0.1035
      5 N         143.2659  140.9982  160.7775 N.3     1  UNL1       -0.2673
      6 C         142.0180  141.4685  161.4642 C.3     1  UNL1        0.1035
      7 C         142.0380  141.7673  162.9340 C.3     1  UNL1        0.1470
      8 C         142.0581  142.0661  164.4038 C.3     1  UNL1        0.1037
      9 O         143.2859  141.2970  162.2473 O.3     1  UNL1       -0.3530
     10 C         143.3459  142.1934  166.6567 C.3     1  UNL1        0.1002
     11 C         143.2716  138.9370  166.8558 C.3     1  UNL1        0.0518
     12 C         142.4668  139.8898  167.6891 C.2     1  UNL1        0.0564
     13 N         141.4866  139.5132  168.7602 N.2     1  UNL1       -0.2503
     14 C         140.9150  140.7772  169.3307 C.2     1  UNL1        0.0770
     15 C         139.9046  141.0235  170.4117 C.2     1  UNL1        0.0184
     16 C         139.5212  142.4276  170.7741 C.2     1  UNL1       -0.0027
     17 C         140.1481  143.5855  170.0555 C.2     1  UNL1       -0.0213
     18 C         141.1584  143.3392  168.9746 C.3     1  UNL1        0.0536
     19 C         141.5419  141.9351  168.6122 C.2     1  UNL1       -0.0017
     20 C         142.5010  141.3866  167.5976 C.2     1  UNL1        0.0052
     21 C         143.2458  140.6994  159.3076 C.3     1  UNL1        0.0913
     22 C         142.7238  139.3813  158.8174 C.3     1  UNL1        0.1087
     23 N         142.8205  138.1650  159.6898 N.3     1  UNL1       -0.1780
     24 H         143.7841  138.1157  160.0205 H       1  UNL1        0.1488
     25 S         141.9409  138.0367  160.8980 S.O2    1  UNL1        0.0603
     26 O         143.1389  137.6966  161.7341 O.2     1  UNL1       -0.1530
     27 O         140.7429  138.3769  160.0619 O.2     1  UNL1       -0.1530
     28 C         141.0611  137.9085  162.1062 C.ar    1  UNL1        0.1220
     29 C         141.6695  137.6512  163.4529 C.ar    1  UNL1        0.0206
     30 C         140.7898  137.5230  164.6611 C.ar    1  UNL1        0.0116
     31 C         139.3018  137.6520  164.5225 C.ar    1  UNL1        0.0685
     32 C         138.6935  137.9092  163.1757 C.ar    1  UNL1        0.0116
     33 C         139.5731  138.0375  161.9675 C.ar    1  UNL1        0.0206
     34 C         138.4222  137.5237  165.7307 C.1     1  UNL1        0.1004
     35 N         137.5426  137.3954  166.9390 N.1     1  UNL1       -0.1908
@<TRIPOS>BOND
     1    11    12    1
     2    12    13    2
     3    13    14    1
     4    14    15    2
     5    15    16    1
     6    16    17    2
     7    17    18    1
     8    18    19    1
     9    19    20    2
    10    20    10    1
    11    10     1    1
    12     1     2    1
    13     2     3    1
    14     3     4    1
    15     4     5    1
    16     5    21    1
    17    21    22    1
    18    22    23    1
    19    23    25    1
    20    25    26    2
    21    25    27    2
    22    25    28    1
    23    28    29   ar
    24    29    30   ar
    25    30    31   ar
    26    31    34    1
    27    34    35    3
    28    31    32   ar
    29    32    33   ar
    30     5     6    1
    31     6     7    1
    32     7     8    1
    33     7     9    1
    34    20    12    1
    35     8     1    1
    36    19    14    1
    37     9     3    1
    38    33    28   ar
    39    23    24    1
@<TRIPOS>MOLECULE
*****
 35 39 0 0 0
SMALL
GASTEIGER

@<TRIPOS>ATOM
      1 N         143.0207  143.0326  164.7613 N.3     1  UNL1       -0.2647
      2 C         143.8089  142.6149  163.5553 C.3     1  UNL1        0.1037
      3 C         143.4105  143.1016  162.1936 C.3     1  UNL1        0.1470
      4 C         143.0122  143.5883  160.8318 C.3     1  UNL1        0.1035
      5 N         141.8257  144.4926  160.6760 N.3     1  UNL1       -0.2673
      6 C         141.0375  144.9103  161.8819 C.3     1  UNL1        0.1035
      7 C         141.4358  144.4237  163.2437 C.3     1  UNL1        0.1470
      8 C         141.8342  143.9370  164.6054 C.3     1  UNL1        0.1037
      9 O         142.2240  144.0060  162.0378 O.3     1  UNL1       -0.3530
     10 C         143.4190  142.5459  166.1232 C.3     1  UNL1        0.1002
     11 C         143.4915  139.3583  165.4276 C.3     1  UNL1        0.0518
     12 C         142.6487  140.0116  166.4825 C.2     1  UNL1        0.0564
     13 N         141.6913  139.3145  167.4030 N.2     1  UNL1       -0.2503
     14 C         141.0662  140.3488  168.2916 C.2     1  UNL1        0.0770
     15 C         140.0507  140.2464  169.3908 C.2     1  UNL1        0.0184
     16 C         139.6064  141.4803  170.1187 C.2     1  UNL1       -0.0027
     17 C         140.1776  142.8167  169.7474 C.2     1  UNL1       -0.0213
     18 C         141.1931  142.9191  168.6482 C.3     1  UNL1        0.0536
     19 C         141.6373  141.6852  167.9203 C.2     1  UNL1       -0.0017
     20 C         142.6154  141.4768  166.8022 C.2     1  UNL1        0.0052
     21 C         141.4273  144.9794  159.3142 C.3     1  UNL1        0.0913
     22 C         140.1958  144.4343  158.6536 C.3     1  UNL1        0.1087
     23 N         139.9062  142.9634  158.7040 N.3     1  UNL1       -0.1780
     24 H         140.7265  142.4888  158.3268 H       1  UNL1        0.1488
     25 S         139.5898  142.3058  160.0145 S.O2    1  UNL1        0.0603
     26 O         140.7349  141.3577  159.8152 O.2     1  UNL1       -0.1530
     27 O         138.4446  143.2539  160.2138 O.2     1  UNL1       -0.1530
     28 C         139.2733  141.6482  161.3250 C.ar    1  UNL1        0.1220
     29 C         140.3673  141.0056  162.1252 C.ar    1  UNL1        0.0206
     30 C         140.0508  140.3480  163.4357 C.ar    1  UNL1        0.0116
     31 C         138.6404  140.3331  163.9460 C.ar    1  UNL1        0.0685
     32 C         137.5464  140.9756  163.1458 C.ar    1  UNL1        0.0116
     33 C         137.8628  141.6332  161.8353 C.ar    1  UNL1        0.0206
     34 C         138.3240  139.6754  165.2565 C.1     1  UNL1        0.1004
     35 N         138.0075  139.0179  166.5671 N.1     1  UNL1       -0.1908
@<TRIPOS>BOND
     1    11    12    1
     2    12    13    2
     3    13    14    1
     4    14    15    2
     5    15    16    1
     6    16    17    2
     7    17    18    1
     8    18    19    1
     9    19    20    2
    10    20    10    1
    11    10     1    1
    12     1     2    1
    13     2     3    1
    14     3     4    1
    15     4     5    1
    16     5    21    1
    17    21    22    1
    18    22    23    1
    19    23    25    1
    20    25    26    2
    21    25    27    2
    22    25    28    1
    23    28    29   ar
    24    29    30   ar
    25    30    31   ar
    26    31    34    1
    27    34    35    3
    28    31    32   ar
    29    32    33   ar
    30     5     6    1
    31     6     7    1
    32     7     8    1
    33     7     9    1
    34    20    12    1
    35     8     1    1
    36    19    14    1
    37     9     3    1
    38    33    28   ar
    39    23    24    1
@<TRIPOS>MOLECULE
*****
 35 39 0 0 0
SMALL
GASTEIGER

@<TRIPOS>ATOM
      1 N         139.0652  138.2443  162.8313 N.3     1  UNL1       -0.2647
      2 C         137.8936  138.9822  162.2545 C.3     1  UNL1        0.1037
      3 C         137.9691  139.5397  160.8640 C.3     1  UNL1        0.1470
      4 C         138.0446  140.0971  159.4735 C.3     1  UNL1        0.1035
      5 N         139.2917  139.9166  158.6598 N.3     1  UNL1       -0.2673
      6 C         140.4634  139.1787  159.2366 C.3     1  UNL1        0.1035
      7 C         140.3879  138.6212  160.6271 C.3     1  UNL1        0.1470
      8 C         140.3123  138.0638  162.0176 C.3     1  UNL1        0.1037
      9 O         139.2163  139.3592  160.0503 O.3     1  UNL1       -0.3530
     10 C         138.9897  137.6868  164.2219 C.3     1  UNL1        0.1002
     11 C         137.3497  137.2905  167.0153 C.3     1  UNL1        0.0518
     12 C         138.2702  138.4284  166.6871 C.2     1  UNL1        0.0564
     13 N         138.5986  139.5840  167.5853 N.2     1  UNL1       -0.2503
     14 C         139.5553  140.4804  166.8565 C.2     1  UNL1        0.0770
     15 C         140.2210  141.7667  167.2466 C.2     1  UNL1        0.0184
     16 C         141.1496  142.4514  166.2881 C.2     1  UNL1       -0.0027
     17 C         141.4126  141.8498  164.9395 C.2     1  UNL1       -0.0213
     18 C         140.7469  140.5635  164.5493 C.3     1  UNL1        0.0536
     19 C         139.8183  139.8788  165.5078 C.2     1  UNL1       -0.0017
     20 C         139.0241  138.6106  165.4032 C.2     1  UNL1        0.0052
     21 C         139.3673  140.4741  157.2692 C.3     1  UNL1        0.0913
     22 C         139.6658  141.9291  157.0598 C.3     1  UNL1        0.1087
     23 N         140.6702  142.6218  157.9323 N.3     1  UNL1       -0.1780
     24 H         140.9767  143.4526  157.4261 H       1  UNL1        0.1488
     25 S         140.2831  143.0723  159.3097 S.O2    1  UNL1        0.0603
     26 O         141.6211  142.6358  159.8285 O.2     1  UNL1       -0.1530
     27 O         138.9450  143.5087  158.7909 O.2     1  UNL1       -0.1530
     28 C         139.8958  143.5227  160.6871 C.ar    1  UNL1        0.1220
     29 C         140.8214  144.3997  161.4772 C.ar    1  UNL1        0.0206
     30 C         140.4342  144.8502  162.8546 C.ar    1  UNL1        0.0116
     31 C         139.1215  144.4237  163.4418 C.ar    1  UNL1        0.0685
     32 C         138.1959  143.5467  162.6517 C.ar    1  UNL1        0.0116
     33 C         138.5831  143.0962  161.2743 C.ar    1  UNL1        0.0206
     34 C         138.7343  144.8742  164.8192 C.1     1  UNL1        0.1004
     35 N         138.3472  145.3246  166.1966 N.1     1  UNL1       -0.1908
@<TRIPOS>BOND
     1    11    12    1
     2    12    13    2
     3    13    14    1
     4    14    15    2
     5    15    16    1
     6    16    17    2
     7    17    18    1
     8    18    19    1
     9    19    20    2
    10    20    10    1
    11    10     1    1
    12     1     2    1
    13     2     3    1
    14     3     4    1
    15     4     5    1
    16     5    21    1
    17    21    22    1
    18    22    23    1
    19    23    25    1
    20    25    26    2
    21    25    27    2
    22    25    28    1
    23    28    29   ar
    24    29    30   ar
    25    30    31   ar
    26    31    34    1
    27    34    35    3
    28    31    32   ar
    29    32    33   ar
    30     5     6    1
    31     6     7    1
    32     7     8    1
    33     7     9    1
    34    20    12    1
    35     8     1    1
    36    19    14    1
    37     9     3    1
    38    33    28   ar
    39    23    24    1
@<TRIPOS>MOLECULE
*****
 35 39 0 0 0
SMALL
GASTEIGER

@<TRIPOS>ATOM
      1 N         142.5464  139.4558  165.2861 N.3     1  UNL1       -0.2647
      2 C         141.6052  139.0658  164.1852 C.3     1  UNL1        0.1037
      3 C         141.9401  139.3950  162.7606 C.3     1  UNL1        0.1470
      4 C         142.2749  139.7241  161.3360 C.3     1  UNL1        0.1035
      5 N         143.5508  140.4431  161.0123 N.3     1  UNL1       -0.2673
      6 C         144.4920  140.8331  162.1133 C.3     1  UNL1        0.1035
      7 C         144.1572  140.5040  163.5379 C.3     1  UNL1        0.1470
      8 C         143.8224  140.1749  164.9625 C.3     1  UNL1        0.1037
      9 O         143.2160  140.1140  162.4369 O.3     1  UNL1       -0.3530
     10 C         142.2115  139.1267  166.7109 C.3     1  UNL1        0.1002
     11 C         138.9611  139.4027  166.7990 C.3     1  UNL1        0.0518
     12 C         139.9376  140.2284  167.5829 C.2     1  UNL1        0.0564
     13 N         139.5916  141.3259  168.5450 N.2     1  UNL1       -0.2503
     14 C         140.8718  141.8774  169.0992 C.2     1  UNL1        0.0770
     15 C         141.1488  142.9708  170.0879 C.2     1  UNL1        0.0184
     16 C         142.5632  143.3075  170.4570 C.2     1  UNL1       -0.0027
     17 C         143.7004  142.5508  169.8373 C.2     1  UNL1       -0.0213
     18 C         143.4234  141.4573  168.8486 C.3     1  UNL1        0.0536
     19 C         142.0090  141.1207  168.4795 C.2     1  UNL1       -0.0017
     20 C         141.4317  140.1015  167.5424 C.2     1  UNL1        0.0052
     21 C         143.8857  140.7723  159.5876 C.3     1  UNL1        0.0913
     22 C         143.0860  141.8037  158.8483 C.3     1  UNL1        0.1087
     23 N         143.0582  143.2221  159.3355 N.3     1  UNL1       -0.1780
     24 H         142.7455  143.7963  158.5526 H       1  UNL1        0.1488
     25 S         142.2064  143.5943  160.5128 S.O2    1  UNL1        0.0603
     26 O         140.9742  143.2483  159.7306 O.2     1  UNL1       -0.1530
     27 O         143.4387  143.9402  161.2950 O.2     1  UNL1       -0.1530
     28 C         141.3547  143.9664  161.6901 C.ar    1  UNL1        0.1220
     29 C         139.9062  144.3016  161.4917 C.ar    1  UNL1        0.0206
     30 C         139.0544  144.6738  162.6690 C.ar    1  UNL1        0.0116
     31 C         139.6512  144.7107  164.0446 C.ar    1  UNL1        0.0685
     32 C         141.0998  144.3755  164.2430 C.ar    1  UNL1        0.0116
     33 C         141.9515  144.0033  163.0658 C.ar    1  UNL1        0.0206
     34 C         138.7994  145.0829  165.2219 C.1     1  UNL1        0.1004
     35 N         137.9477  145.4550  166.3993 N.1     1  UNL1       -0.1908
@<TRIPOS>BOND
     1    11    12    1
     2    12    13    2
     3    13    14    1
     4    14    15    2
     5    15    16    1
     6    16    17    2
     7    17    18    1
     8    18    19    1
     9    19    20    2
    10    20    10    1
    11    10     1    1
    12     1     2    1
    13     2     3    1
    14     3     4    1
    15     4     5    1
    16     5    21    1
    17    21    22    1
    18    22    23    1
    19    23    25    1
    20    25    26    2
    21    25    27    2
    22    25    28    1
    23    28    29   ar
    24    29    30   ar
    25    30    31   ar
    26    31    34    1
    27    34    35    3
    28    31    32   ar
    29    32    33   ar
    30     5     6    1
    31     6     7    1
    32     7     8    1
    33     7     9    1
    34    20    12    1
    35     8     1    1
    36    19    14    1
    37     9     3    1
    38    33    28   ar
    39    23    24    1
@<TRIPOS>MOLECULE
*****
 35 39 0 0 0
SMALL
GASTEIGER

@<TRIPOS>ATOM
      1 N         142.8363  143.3184  164.3693 N.3     1  UNL1       -0.2647
      2 C         141.6588  144.2475  164.3553 C.3     1  UNL1        0.1037
      3 C         141.1246  144.7616  163.0514 C.3     1  UNL1        0.1470
      4 C         140.5904  145.2758  161.7475 C.3     1  UNL1        0.1035
      5 N         141.2337  144.8610  160.4576 N.3     1  UNL1       -0.2673
      6 C         142.4113  143.9319  160.4715 C.3     1  UNL1        0.1035
      7 C         142.9455  143.4177  161.7754 C.3     1  UNL1        0.1470
      8 C         143.4797  142.9036  163.0793 C.3     1  UNL1        0.1037
      9 O         141.7679  144.3468  161.7615 O.3     1  UNL1       -0.3530
     10 C         143.3706  142.8042  165.6733 C.3     1  UNL1        0.1002
     11 C         143.8240  139.6674  164.8956 C.3     1  UNL1        0.0518
     12 C         142.9283  140.1861  165.9813 C.2     1  UNL1        0.0564
     13 N         142.0837  139.3540  166.9002 N.2     1  UNL1       -0.2503
     14 C         141.3534  140.2816  167.8256 C.2     1  UNL1        0.0770
     15 C         140.3812  140.0280  168.9393 C.2     1  UNL1        0.0184
     16 C         139.8021  141.1799  169.7060 C.2     1  UNL1       -0.0027
     17 C         140.1953  142.5852  169.3591 C.2     1  UNL1       -0.0213
     18 C         141.1675  142.8387  168.2453 C.3     1  UNL1        0.0536
     19 C         141.7466  141.6869  167.4786 C.2     1  UNL1       -0.0017
     20 C         142.7199  141.6279  166.3388 C.2     1  UNL1        0.0052
     21 C         140.6995  145.3751  159.1535 C.3     1  UNL1        0.0913
     22 C         140.0081  144.4405  158.2056 C.3     1  UNL1        0.1087
     23 N         138.9474  143.5084  158.7115 N.3     1  UNL1       -0.1780
     24 H         138.5345  143.0604  157.8934 H       1  UNL1        0.1488
     25 S         139.3072  142.4122  159.6701 S.O2    1  UNL1        0.0603
     26 O         138.3163  142.9515  160.6587 O.2     1  UNL1       -0.1530
     27 O         140.2981  141.8730  158.6815 O.2     1  UNL1       -0.1530
     28 C         139.6671  141.3160  160.6287 C.ar    1  UNL1        0.1220
     29 C         139.7072  141.5918  162.1025 C.ar    1  UNL1        0.0206
     30 C         140.0671  140.4956  163.0611 C.ar    1  UNL1        0.0116
     31 C         140.3869  139.1237  162.5458 C.ar    1  UNL1        0.0685
     32 C         140.3469  138.8480  161.0719 C.ar    1  UNL1        0.0116
     33 C         139.9870  139.9441  160.1133 C.ar    1  UNL1        0.0206
     34 C         140.7468  138.0276  163.5044 C.1     1  UNL1        0.1004
     35 N         141.1067  136.9313  164.4630 N.1     1  UNL1       -0.1908
@<TRIPOS>BOND
     1    11    12    1
     2    12    13    2
     3    13    14    1
     4    14    15    2
     5    15    16    1
     6    16    17    2
     7    17    18    1
     8    18    19    1
     9    19    20    2
    10    20    10    1
    11    10     1    1
    12     1     2    1
    13     2     3    1
    14     3     4    1
    15     4     5    1
    16     5    21    1
    17    21    22    1
    18    22    23    1
    19    23    25    1
    20    25    26    2
    21    25    27    2
    22    25    28    1
    23    28    29   ar
    24    29    30   ar
    25    30    31   ar
    26    31    34    1
    27    34    35    3
    28    31    32   ar
    29    32    33   ar
    30     5     6    1
    31     6     7    1
    32     7     8    1
    33     7     9    1
    34    20    12    1
    35     8     1    1
    36    19    14    1
    37     9     3    1
    38    33    28   ar
    39    23    24    1
@<TRIPOS>MOLECULE
*****
 35 39 0 0 0
SMALL
GASTEIGER

@<TRIPOS>ATOM
      1 N         139.7591  140.1084  164.6043 N.3     1  UNL1       -0.2647
      2 C         140.2388  139.4247  163.3583 C.3     1  UNL1        0.1037
      3 C         139.8589  139.9663  162.0121 C.3     1  UNL1        0.1470
      4 C         139.4790  140.5077  160.6658 C.3     1  UNL1        0.1035
      5 N         138.6194  141.7329  160.5655 N.3     1  UNL1       -0.2673
      6 C         138.1397  142.4165  161.8115 C.3     1  UNL1        0.1035
      7 C         138.5195  141.8750  163.1578 C.3     1  UNL1        0.1470
      8 C         138.8995  141.3335  164.5040 C.3     1  UNL1        0.1037
      9 O         138.9993  141.1914  161.9118 O.3     1  UNL1       -0.3530
     10 C         140.1390  139.5668  165.9506 C.3     1  UNL1        0.1002
     11 C         143.0833  140.7353  165.1660 C.3     1  UNL1        0.0518
     12 C         142.3951  140.8954  166.4892 C.2     1  UNL1        0.0564
     13 N         142.9394  141.6206  167.6841 N.2     1  UNL1       -0.2503
     14 C         141.9224  141.5318  168.7832 C.2     1  UNL1        0.0770
     15 C         141.9129  142.0605  170.1869 C.2     1  UNL1        0.0184
     16 C         140.7305  141.8090  171.0749 C.2     1  UNL1       -0.0027
     17 C         139.5577  141.0288  170.5593 C.2     1  UNL1       -0.0213
     18 C         139.5673  140.5001  169.1556 C.3     1  UNL1        0.0536
     19 C         140.7496  140.7516  168.2676 C.2     1  UNL1       -0.0017
     20 C         141.0418  140.3583  166.8498 C.2     1  UNL1        0.0052
     21 C         138.2395  142.2745  159.2192 C.3     1  UNL1        0.0913
     22 C         139.1957  143.1515  158.4666 C.3     1  UNL1        0.1087
     23 N         139.6860  144.4283  159.0825 N.3     1  UNL1       -0.1780
     24 H         138.8601  144.9491  159.3774 H       1  UNL1        0.1488
     25 S         140.6138  144.3849  160.2604 S.O2    1  UNL1        0.0603
     26 O         139.7644  145.3995  160.9669 O.2     1  UNL1       -0.1530
     27 O         141.4632  143.3703  159.5539 O.2     1  UNL1       -0.1530
     28 C         141.5417  144.3414  161.4382 C.ar    1  UNL1        0.1220
     29 C         142.9114  143.7476  161.2923 C.ar    1  UNL1        0.0206
     30 C         143.8394  143.7041  162.4700 C.ar    1  UNL1        0.0116
     31 C         143.3975  144.2544  163.7936 C.ar    1  UNL1        0.0685
     32 C         142.0279  144.8482  163.9395 C.ar    1  UNL1        0.0116
     33 C         141.0999  144.8917  162.7617 C.ar    1  UNL1        0.0206
     34 C         144.3255  144.2109  164.9713 C.1     1  UNL1        0.1004
     35 N         145.2534  144.1674  166.1491 N.1     1  UNL1       -0.1908
@<TRIPOS>BOND
     1    11    12    1
     2    12    13    2
     3    13    14    1
     4    14    15    2
     5    15    16    1
     6    16    17    2
     7    17    18    1
     8    18    19    1
     9    19    20    2
    10    20    10    1
    11    10     1    1
    12     1     2    1
    13     2     3    1
    14     3     4    1
    15     4     5    1
    16     5    21    1
    17    21    22    1
    18    22    23    1
    19    23    25    1
    20    25    26    2
    21    25    27    2
    22    25    28    1
    23    28    29   ar
    24    29    30   ar
    25    30    31   ar
    26    31    34    1
    27    34    35    3
    28    31    32   ar
    29    32    33   ar
    30     5     6    1
    31     6     7    1
    32     7     8    1
    33     7     9    1
    34    20    12    1
    35     8     1    1
    36    19    14    1
    37     9     3    1
    38    33    28   ar
    39    23    24    1
@<TRIPOS>MOLECULE
*****
 35 39 0 0 0
SMALL
GASTEIGER

@<TRIPOS>ATOM
      1 N         142.9160  139.2989  163.9746 N.3     1  UNL1       -0.2647
      2 C         143.5636  140.6508  164.0279 C.3     1  UNL1        0.1037
      3 C         143.9489  141.3484  162.7571 C.3     1  UNL1        0.1470
      4 C         144.3341  142.0460  161.4864 C.3     1  UNL1        0.1035
      5 N         144.0717  141.3918  160.1623 N.3     1  UNL1       -0.2673
      6 C         143.4241  140.0399  160.1091 C.3     1  UNL1        0.1035
      7 C         143.0388  139.3422  161.3798 C.3     1  UNL1        0.1470
      8 C         142.6536  138.6446  162.6506 C.3     1  UNL1        0.1037
      9 O         143.6865  140.6941  161.4331 O.3     1  UNL1       -0.3530
     10 C         142.5307  138.6012  165.2454 C.3     1  UNL1        0.1002
     11 C         139.3987  138.7628  164.3431 C.3     1  UNL1        0.0518
     12 C         139.9599  139.2030  165.6626 C.2     1  UNL1        0.0564
     13 N         139.1801  139.7948  166.7991 N.2     1  UNL1       -0.2503
     14 C         140.1377  140.0863  167.9163 C.2     1  UNL1        0.0770
     15 C         139.9379  140.6733  169.2821 C.2     1  UNL1        0.0184
     16 C         141.1098  140.8487  170.2018 C.2     1  UNL1       -0.0027
     17 C         142.4815  140.4371  169.7557 C.2     1  UNL1       -0.0213
     18 C         142.6813  139.8500  168.3900 C.3     1  UNL1        0.0536
     19 C         141.5094  139.6746  167.4702 C.2     1  UNL1       -0.0017
     20 C         141.3995  139.1287  166.0774 C.2     1  UNL1        0.0052
     21 C         144.4570  142.0894  158.8915 C.3     1  UNL1        0.0913
     22 C         143.5711  143.1591  158.3250 C.3     1  UNL1        0.1087
     23 N         142.0819  143.0553  158.4718 N.3     1  UNL1       -0.1780
     24 H         141.8361  142.0808  158.2977 H       1  UNL1        0.1488
     25 S         141.4269  143.4429  159.7644 S.O2    1  UNL1        0.0603
     26 O         140.5601  142.2208  159.6916 O.2     1  UNL1       -0.1530
     27 O         142.2937  144.6649  159.8372 O.2     1  UNL1       -0.1530
     28 C         140.7719  143.8306  161.0570 C.ar    1  UNL1        0.1220
     29 C         141.5221  144.6560  162.0598 C.ar    1  UNL1        0.0206
     30 C         140.8672  145.0437  163.3524 C.ar    1  UNL1        0.0116
     31 C         139.4621  144.6059  163.6421 C.ar    1  UNL1        0.0685
     32 C         138.7119  143.7804  162.6392 C.ar    1  UNL1        0.0116
     33 C         139.3668  143.3927  161.3466 C.ar    1  UNL1        0.0206
     34 C         138.8072  144.9936  164.9347 C.1     1  UNL1        0.1004
     35 N         138.1523  145.3814  166.2273 N.1     1  UNL1       -0.1908
@<TRIPOS>BOND
     1    11    12    1
     2    12    13    2
     3    13    14    1
     4    14    15    2
     5    15    16    1
     6    16    17    2
     7    17    18    1
     8    18    19    1
     9    19    20    2
    10    20    10    1
    11    10     1    1
    12     1     2    1
    13     2     3    1
    14     3     4    1
    15     4     5    1
    16     5    21    1
    17    21    22    1
    18    22    23    1
    19    23    25    1
    20    25    26    2
    21    25    27    2
    22    25    28    1
    23    28    29   ar
    24    29    30   ar
    25    30    31   ar
    26    31    34    1
    27    34    35    3
    28    31    32   ar
    29    32    33   ar
    30     5     6    1
    31     6     7    1
    32     7     8    1
    33     7     9    1
    34    20    12    1
    35     8     1    1
    36    19    14    1
    37     9     3    1
    38    33    28   ar
    39    23    24    1
