@<TRIPOS>MOLECULE
*****
 34 37 0 0 0
SMALL
GASTEIGER

@<TRIPOS>ATOM
      1 N         140.7945  141.9239  167.4109 N.ar    1  UNL1       -0.2417
      2 N         141.0532  142.9514  166.3492 N.ar    1  UNL1       -0.1682
      3 C         140.1694  142.6403  165.1778 C.ar    1  UNL1        0.1079
      4 C         139.3645  141.4204  165.5156 C.ar    1  UNL1        0.1031
      5 C         139.7508  140.9777  166.8957 C.ar    1  UNL1        0.1279
      6 N         139.1916  139.7961  167.6314 N.pl3   1  UNL1       -0.3427
      7 H         138.5057  139.2316  167.2071 H       1  UNL1        0.1437
      8 H         139.5105  139.5853  168.5387 H       1  UNL1        0.1437
      9 C         140.1023  143.4133  163.8940 C.ar    1  UNL1        0.0197
     10 C         139.2671  144.6563  163.8098 C.ar    1  UNL1        0.0031
     11 C         139.2000  145.4293  162.5261 C.ar    1  UNL1        0.0193
     12 C         139.9682  144.9592  161.3266 C.ar    1  UNL1        0.0844
     13 N         139.9012  145.7322  160.0428 N.ar    1  UNL1       -0.2117
     14 C         140.6694  145.2622  158.8433 C.ar    1  UNL1        0.2247
     15 C         141.5047  144.0190  158.9275 C.ar    1  UNL1        0.0577
     16 C         141.5717  143.2461  160.2113 C.ar    1  UNL1        0.0063
     17 C         140.8035  143.7162  161.4108 C.ar    1  UNL1        0.0180
     18 C         140.8705  142.9432  162.6945 C.ar    1  UNL1        0.0031
     19 O         140.6023  146.0351  157.5596 O.3     1  UNL1       -0.4640
     20 C         139.6141  145.6457  156.5003 C.3     1  UNL1        0.1678
     21 C         138.6895  146.0280  155.3827 C.3     1  UNL1        0.0473
     22 C         138.8271  144.5891  155.7834 C.3     1  UNL1        0.0473
     23 C         138.3511  140.7594  164.6290 C.2     1  UNL1        0.2470
     24 N         137.2687  141.5763  163.9880 N.am    1  UNL1       -0.3252
     25 O         138.4203  139.2812  164.3832 O.2     1  UNL1       -0.2702
     26 H         137.2233  142.5465  164.1493 H       1  UNL1        0.1453
     27 H         136.6036  141.1424  163.4061 H       1  UNL1        0.1453
     28 C         142.4720  140.8928  168.2000 C.3     1  UNL1        0.0246
     29 C         141.4623  141.8547  168.7523 C.3     1  UNL1        0.0903
     30 C         140.4525  142.8166  169.3046 C.3     1  UNL1        0.0246
     31 C         142.1300  141.7855  170.0937 C.3     1  UNL1        0.0543
     32 C         141.8935  140.6056  170.9892 C.3     1  UNL1        0.1391
     33 O         140.7962  140.6478  172.0110 O.3     1  UNL1       -0.3819
     34 H         141.0023  141.3200  172.6792 H       1  UNL1        0.2104
@<TRIPOS>BOND
     1    28    29    1
     2    29    30    1
     3    29    31    1
     4    31    32    1
     5    32    33    1
     6    29     1    1
     7     1     2   ar
     8     2     3   ar
     9     3     9    1
    10     9    10   ar
    11    10    11   ar
    12    11    12   ar
    13    12    13   ar
    14    13    14   ar
    15    14    19    1
    16    19    20    1
    17    20    21    1
    18    21    22    1
    19    14    15   ar
    20    15    16   ar
    21    16    17   ar
    22    17    18   ar
    23     3     4   ar
    24     4    23    1
    25    23    24   am
    26    23    25    2
    27     4     5   ar
    28     5     6    1
    29     5     1   ar
    30    18     9   ar
    31    17    12   ar
    32    22    20    1
    33    33    34    1
    34    24    26    1
    35    24    27    1
    36     6     7    1
    37     6     8    1
@<TRIPOS>MOLECULE
*****
 34 37 0 0 0
SMALL
GASTEIGER

@<TRIPOS>ATOM
      1 N         140.6077  141.3664  167.5989 N.ar    1  UNL1       -0.2417
      2 N         140.5628  141.5674  166.1131 N.ar    1  UNL1       -0.1682
      3 C         139.6605  140.5202  165.5307 C.ar    1  UNL1        0.1079
      4 C         139.1477  139.6720  166.6565 C.ar    1  UNL1        0.1031
      5 C         139.7331  140.1949  167.9347 C.ar    1  UNL1        0.1279
      6 N         139.4871  139.6432  169.3077 N.pl3   1  UNL1       -0.3427
      7 H         138.8934  138.8670  169.4273 H       1  UNL1        0.1437
      8 H         139.9192  140.0574  170.0894 H       1  UNL1        0.1437
      9 C         139.3291  140.3510  164.0775 C.ar    1  UNL1        0.0197
     10 C         138.0220  140.8561  163.5426 C.ar    1  UNL1        0.0031
     11 C         137.6907  140.6869  162.0895 C.ar    1  UNL1        0.0193
     12 C         138.6665  140.0126  161.1713 C.ar    1  UNL1        0.0844
     13 N         138.3351  139.8434  159.7181 N.ar    1  UNL1       -0.2117
     14 C         139.3110  139.1691  158.7999 C.ar    1  UNL1        0.2247
     15 C         140.6182  138.6640  159.3349 C.ar    1  UNL1        0.0577
     16 C         140.9495  138.8332  160.7880 C.ar    1  UNL1        0.0063
     17 C         139.9736  139.5075  161.7062 C.ar    1  UNL1        0.0180
     18 C         140.3049  139.6767  163.1593 C.ar    1  UNL1        0.0031
     19 O         138.9797  138.9999  157.3468 O.3     1  UNL1       -0.4640
     20 C         139.6015  137.8838  156.5608 C.3     1  UNL1        0.1678
     21 C         139.5074  136.8438  155.4840 C.3     1  UNL1        0.0473
     22 C         140.7726  136.9908  156.2762 C.3     1  UNL1        0.0473
     23 C         138.2135  138.5056  166.5269 C.2     1  UNL1        0.2470
     24 N         138.4659  137.4543  165.4873 N.am    1  UNL1       -0.3252
     25 O         137.0267  138.3906  167.4371 O.2     1  UNL1       -0.2702
     26 H         139.2448  137.5298  164.8899 H       1  UNL1        0.1453
     27 H         137.8527  136.6888  165.4023 H       1  UNL1        0.1453
     28 C         140.2398  143.1481  168.6897 C.3     1  UNL1        0.0246
     29 C         141.3899  142.1918  168.5770 C.3     1  UNL1        0.0903
     30 C         142.5400  141.2355  168.4644 C.3     1  UNL1        0.0246
     31 C         142.1720  143.0172  169.5552 C.3     1  UNL1        0.0543
     32 C         142.4782  142.4735  170.9193 C.3     1  UNL1        0.1391
     33 O         141.3604  142.1475  171.8649 O.3     1  UNL1       -0.3819
     34 H         140.9001  142.9639  172.1151 H       1  UNL1        0.2104
@<TRIPOS>BOND
     1    28    29    1
     2    29    30    1
     3    29    31    1
     4    31    32    1
     5    32    33    1
     6    29     1    1
     7     1     2   ar
     8     2     3   ar
     9     3     9    1
    10     9    10   ar
    11    10    11   ar
    12    11    12   ar
    13    12    13   ar
    14    13    14   ar
    15    14    19    1
    16    19    20    1
    17    20    21    1
    18    21    22    1
    19    14    15   ar
    20    15    16   ar
    21    16    17   ar
    22    17    18   ar
    23     3     4   ar
    24     4    23    1
    25    23    24   am
    26    23    25    2
    27     4     5   ar
    28     5     6    1
    29     5     1   ar
    30    18     9   ar
    31    17    12   ar
    32    22    20    1
    33    33    34    1
    34    24    26    1
    35    24    27    1
    36     6     7    1
    37     6     8    1
@<TRIPOS>MOLECULE
*****
 34 37 0 0 0
SMALL
GASTEIGER

@<TRIPOS>ATOM
      1 N         140.2820  140.7544  167.4176 N.ar    1  UNL1       -0.2417
      2 N         139.3881  140.9436  166.2280 N.ar    1  UNL1       -0.1682
      3 C         139.9209  140.0990  165.1087 C.ar    1  UNL1        0.1079
      4 C         141.1442  139.3878  165.6065 C.ar    1  UNL1        0.1031
      5 C         141.3674  139.7928  167.0334 C.ar    1  UNL1        0.1279
      6 N         142.4805  139.3194  167.9205 N.pl3   1  UNL1       -0.3427
      7 H         143.1486  138.6839  167.5754 H       1  UNL1        0.1437
      8 H         142.5429  139.6441  168.8478 H       1  UNL1        0.1437
      9 C         139.3336  139.9856  163.7331 C.ar    1  UNL1        0.0197
     10 C         138.5671  138.7564  163.3439 C.ar    1  UNL1        0.0031
     11 C         137.9798  138.6430  161.9683 C.ar    1  UNL1        0.0193
     12 C         138.1589  139.7588  160.9820 C.ar    1  UNL1        0.0844
     13 N         137.5716  139.6454  159.6064 N.ar    1  UNL1       -0.2117
     14 C         137.7507  140.7613  158.6201 C.ar    1  UNL1        0.2247
     15 C         138.5171  141.9906  159.0094 C.ar    1  UNL1        0.0577
     16 C         139.1045  142.1039  160.3850 C.ar    1  UNL1        0.0063
     17 C         138.9253  140.9881  161.3713 C.ar    1  UNL1        0.0180
     18 C         139.5127  141.1014  162.7468 C.ar    1  UNL1        0.0031
     19 O         137.1634  140.6479  157.2446 O.3     1  UNL1       -0.4640
     20 C         137.2844  141.7910  156.2808 C.3     1  UNL1        0.1678
     21 C         137.9720  142.4422  155.1176 C.3     1  UNL1        0.0473
     22 C         136.8063  143.1197  155.7748 C.3     1  UNL1        0.0473
     23 C         141.9949  138.4382  164.8162 C.2     1  UNL1        0.2470
     24 N         143.3611  138.8569  164.3602 N.am    1  UNL1       -0.3252
     25 O         141.4792  137.0698  164.4818 O.2     1  UNL1       -0.2702
     26 H         143.6995  139.7550  164.5796 H       1  UNL1        0.1453
     27 H         143.9194  138.2336  163.8414 H       1  UNL1        0.1453
     28 C         139.2486  140.2763  169.2074 C.3     1  UNL1        0.0246
     29 C         140.1193  141.4113  168.7562 C.3     1  UNL1        0.0903
     30 C         140.9899  142.5464  168.3050 C.3     1  UNL1        0.0246
     31 C         139.9565  142.0683  170.0948 C.3     1  UNL1        0.0543
     32 C         140.9707  141.8320  171.1744 C.3     1  UNL1        0.1391
     33 O         140.7581  140.7361  172.1762 O.3     1  UNL1       -0.3819
     34 H         139.9842  140.9434  172.7230 H       1  UNL1        0.2104
@<TRIPOS>BOND
     1    28    29    1
     2    29    30    1
     3    29    31    1
     4    31    32    1
     5    32    33    1
     6    29     1    1
     7     1     2   ar
     8     2     3   ar
     9     3     9    1
    10     9    10   ar
    11    10    11   ar
    12    11    12   ar
    13    12    13   ar
    14    13    14   ar
    15    14    19    1
    16    19    20    1
    17    20    21    1
    18    21    22    1
    19    14    15   ar
    20    15    16   ar
    21    16    17   ar
    22    17    18   ar
    23     3     4   ar
    24     4    23    1
    25    23    24   am
    26    23    25    2
    27     4     5   ar
    28     5     6    1
    29     5     1   ar
    30    18     9   ar
    31    17    12   ar
    32    22    20    1
    33    33    34    1
    34    24    26    1
    35    24    27    1
    36     6     7    1
    37     6     8    1
@<TRIPOS>MOLECULE
*****
 34 37 0 0 0
SMALL
GASTEIGER

@<TRIPOS>ATOM
      1 N         141.5544  143.8240  161.8963 N.ar    1  UNL1       -0.2417
      2 N         140.5973  143.1596  162.8410 N.ar    1  UNL1       -0.1682
      3 C         141.3903  142.5893  163.9794 C.ar    1  UNL1        0.1079
      4 C         142.8375  142.9013  163.7382 C.ar    1  UNL1        0.1031
      5 C         142.9390  143.6643  162.4508 C.ar    1  UNL1        0.1279
      6 N         144.2031  144.1776  161.8274 N.pl3   1  UNL1       -0.3427
      7 H         145.0686  144.0219  162.2698 H       1  UNL1        0.1437
      8 H         144.1671  144.6702  160.9757 H       1  UNL1        0.1437
      9 C         140.8337  141.8389  165.1529 C.ar    1  UNL1        0.0197
     10 C         140.2863  140.4548  164.9669 C.ar    1  UNL1        0.0031
     11 C         139.7298  139.7044  166.1403 C.ar    1  UNL1        0.0193
     12 C         139.7206  140.3381  167.4999 C.ar    1  UNL1        0.0844
     13 N         139.1641  139.5876  168.6734 N.ar    1  UNL1       -0.2117
     14 C         139.1549  140.2213  170.0330 C.ar    1  UNL1        0.2247
     15 C         139.7023  141.6054  170.2190 C.ar    1  UNL1        0.0577
     16 C         140.2588  142.3558  169.0455 C.ar    1  UNL1        0.0063
     17 C         140.2680  141.7221  167.6859 C.ar    1  UNL1        0.0180
     18 C         140.8245  142.4725  166.5125 C.ar    1  UNL1        0.0031
     19 O         138.5984  139.4709  171.2064 O.3     1  UNL1       -0.4640
     20 C         137.1838  138.9727  171.1757 C.3     1  UNL1        0.1678
     21 C         136.1836  137.9253  170.7852 C.3     1  UNL1        0.0473
     22 C         135.7339  139.1573  171.5130 C.3     1  UNL1        0.0473
     23 C         143.9824  142.5175  164.6282 C.2     1  UNL1        0.2470
     24 N         144.4304  143.4470  165.7169 N.am    1  UNL1       -0.3252
     25 O         144.6792  141.2041  164.4294 O.2     1  UNL1       -0.2702
     26 H         143.9731  144.3090  165.8473 H       1  UNL1        0.1453
     27 H         145.1818  143.1950  166.3009 H       1  UNL1        0.1453
     28 C         141.7957  143.4023  159.8314 C.3     1  UNL1        0.0246
     29 C         141.1908  144.5250  160.6210 C.3     1  UNL1        0.0903
     30 C         140.5859  145.6477  161.4106 C.3     1  UNL1        0.0246
     31 C         140.8272  145.2260  159.3457 C.3     1  UNL1        0.0543
     32 C         141.7484  145.1584  158.1638 C.3     1  UNL1        0.1391
     33 O         142.5624  146.3577  157.7778 O.3     1  UNL1       -0.3819
     34 H         141.9716  147.0681  157.4827 H       1  UNL1        0.2104
@<TRIPOS>BOND
     1    28    29    1
     2    29    30    1
     3    29    31    1
     4    31    32    1
     5    32    33    1
     6    29     1    1
     7     1     2   ar
     8     2     3   ar
     9     3     9    1
    10     9    10   ar
    11    10    11   ar
    12    11    12   ar
    13    12    13   ar
    14    13    14   ar
    15    14    19    1
    16    19    20    1
    17    20    21    1
    18    21    22    1
    19    14    15   ar
    20    15    16   ar
    21    16    17   ar
    22    17    18   ar
    23     3     4   ar
    24     4    23    1
    25    23    24   am
    26    23    25    2
    27     4     5   ar
    28     5     6    1
    29     5     1   ar
    30    18     9   ar
    31    17    12   ar
    32    22    20    1
    33    33    34    1
    34    24    26    1
    35    24    27    1
    36     6     7    1
    37     6     8    1
@<TRIPOS>MOLECULE
*****
 34 37 0 0 0
SMALL
GASTEIGER

@<TRIPOS>ATOM
      1 N         141.9561  140.9375  166.6139 N.ar    1  UNL1       -0.2417
      2 N         141.6745  140.0285  165.4543 N.ar    1  UNL1       -0.1682
      3 C         142.6534  140.3507  164.3644 C.ar    1  UNL1        0.1079
      4 C         143.5400  141.4588  164.8503 C.ar    1  UNL1        0.1031
      5 C         143.1091  141.8215  166.2405 C.ar    1  UNL1        0.1279
      6 N         143.7232  142.8819  167.1056 N.pl3   1  UNL1       -0.3427
      7 H         144.4812  143.4130  166.7700 H       1  UNL1        0.1437
      8 H         143.3683  143.0468  168.0090 H       1  UNL1        0.1437
      9 C         142.7320  139.6822  163.0239 C.ar    1  UNL1        0.0197
     10 C         143.8162  138.6836  162.7462 C.ar    1  UNL1        0.0031
     11 C         143.8947  138.0151  161.4057 C.ar    1  UNL1        0.0193
     12 C         142.8889  138.3452  160.3429 C.ar    1  UNL1        0.0844
     13 N         142.9674  137.6766  159.0024 N.ar    1  UNL1       -0.2117
     14 C         141.9617  138.0067  157.9396 C.ar    1  UNL1        0.2247
     15 C         140.8774  139.0053  158.2174 C.ar    1  UNL1        0.0577
     16 C         140.7989  139.6738  159.5579 C.ar    1  UNL1        0.0063
     17 C         141.8047  139.3438  160.6206 C.ar    1  UNL1        0.0180
     18 C         141.7262  140.0123  161.9611 C.ar    1  UNL1        0.0031
     19 O         142.0401  137.3382  156.5992 O.3     1  UNL1       -0.4640
     20 C         142.9058  136.1271  156.4145 C.3     1  UNL1        0.1678
     21 C         143.9562  135.3869  155.6408 C.3     1  UNL1        0.0473
     22 C         143.3547  134.7698  156.8685 C.3     1  UNL1        0.0473
     23 C         144.6608  142.0929  164.0811 C.2     1  UNL1        0.2470
     24 N         145.9823  141.3927  163.9667 N.am    1  UNL1       -0.3252
     25 O         144.4600  143.4274  163.4261 O.2     1  UNL1       -0.2702
     26 H         146.1142  140.5169  164.3965 H       1  UNL1        0.1453
     27 H         146.7179  141.8090  163.4618 H       1  UNL1        0.1453
     28 C         142.1094  139.8758  168.4439 C.3     1  UNL1        0.0246
     29 C         141.2149  140.9588  167.9177 C.3     1  UNL1        0.0903
     30 C         140.3203  142.0417  167.3915 C.3     1  UNL1        0.0246
     31 C         140.4737  140.9800  169.2216 C.3     1  UNL1        0.0543
     32 C         140.9238  140.1061  170.3545 C.3     1  UNL1        0.1391
     33 O         139.9105  139.4658  171.2562 O.3     1  UNL1       -0.3819
     34 H         139.4433  140.1528  171.7569 H       1  UNL1        0.2104
@<TRIPOS>BOND
     1    28    29    1
     2    29    30    1
     3    29    31    1
     4    31    32    1
     5    32    33    1
     6    29     1    1
     7     1     2   ar
     8     2     3   ar
     9     3     9    1
    10     9    10   ar
    11    10    11   ar
    12    11    12   ar
    13    12    13   ar
    14    13    14   ar
    15    14    19    1
    16    19    20    1
    17    20    21    1
    18    21    22    1
    19    14    15   ar
    20    15    16   ar
    21    16    17   ar
    22    17    18   ar
    23     3     4   ar
    24     4    23    1
    25    23    24   am
    26    23    25    2
    27     4     5   ar
    28     5     6    1
    29     5     1   ar
    30    18     9   ar
    31    17    12   ar
    32    22    20    1
    33    33    34    1
    34    24    26    1
    35    24    27    1
    36     6     7    1
    37     6     8    1
@<TRIPOS>MOLECULE
*****
 34 37 0 0 0
SMALL
GASTEIGER

@<TRIPOS>ATOM
      1 N         140.4920  140.5548  167.5601 N.ar    1  UNL1       -0.2417
      2 N         141.2630  141.4084  166.5973 N.ar    1  UNL1       -0.1682
      3 C         140.6501  141.2434  165.2381 C.ar    1  UNL1        0.1079
      4 C         139.5004  140.2879  165.3609 C.ar    1  UNL1        0.1031
      5 C         139.4026  139.8623  166.7959 C.ar    1  UNL1        0.1279
      6 N         138.3928  138.9112  167.3666 N.pl3   1  UNL1       -0.3427
      7 H         137.7131  138.5054  166.7814 H       1  UNL1        0.1437
      8 H         138.4097  138.6928  168.3264 H       1  UNL1        0.1437
      9 C         141.1069  141.9160  163.9775 C.ar    1  UNL1        0.0197
     10 C         142.3665  141.4636  163.3001 C.ar    1  UNL1        0.0031
     11 C         142.8232  142.1362  162.0395 C.ar    1  UNL1        0.0193
     12 C         142.0204  143.2611  161.4564 C.ar    1  UNL1        0.0844
     13 N         142.4772  143.9336  160.1958 N.ar    1  UNL1       -0.2117
     14 C         141.6744  145.0586  159.6126 C.ar    1  UNL1        0.2247
     15 C         140.4148  145.5109  160.2901 C.ar    1  UNL1        0.0577
     16 C         139.9580  144.8384  161.5506 C.ar    1  UNL1        0.0063
     17 C         140.7608  143.7135  162.1338 C.ar    1  UNL1        0.0180
     18 C         140.3041  143.0409  163.3943 C.ar    1  UNL1        0.0031
     19 O         142.1311  145.7311  158.3520 O.3     1  UNL1       -0.4640
     20 C         141.1500  146.0071  157.2513 C.3     1  UNL1        0.1678
     21 C         139.7870  146.4477  156.8063 C.3     1  UNL1        0.0473
     22 C         140.8139  146.0444  155.7900 C.3     1  UNL1        0.0473
     23 C         138.6055  139.8372  164.2447 C.2     1  UNL1        0.2470
     24 N         138.7320  138.4466  163.6969 N.am    1  UNL1       -0.3252
     25 O         137.5840  140.7772  163.6762 O.2     1  UNL1       -0.2702
     26 H         139.4024  137.8296  164.0699 H       1  UNL1        0.1453
     27 H         138.1446  138.1508  162.9642 H       1  UNL1        0.1453
     28 C         141.9109  139.4994  168.7317 C.3     1  UNL1        0.0246
     29 C         140.7627  140.4177  169.0290 C.3     1  UNL1        0.0903
     30 C         139.6146  141.3361  169.3263 C.3     1  UNL1        0.0246
     31 C         141.0335  140.2807  170.4980 C.3     1  UNL1        0.0543
     32 C         141.4917  141.4691  171.2902 C.3     1  UNL1        0.1391
     33 O         140.5552  142.1333  172.2555 O.3     1  UNL1       -0.3819
     34 H         139.8206  142.5370  171.7675 H       1  UNL1        0.2104
@<TRIPOS>BOND
     1    28    29    1
     2    29    30    1
     3    29    31    1
     4    31    32    1
     5    32    33    1
     6    29     1    1
     7     1     2   ar
     8     2     3   ar
     9     3     9    1
    10     9    10   ar
    11    10    11   ar
    12    11    12   ar
    13    12    13   ar
    14    13    14   ar
    15    14    19    1
    16    19    20    1
    17    20    21    1
    18    21    22    1
    19    14    15   ar
    20    15    16   ar
    21    16    17   ar
    22    17    18   ar
    23     3     4   ar
    24     4    23    1
    25    23    24   am
    26    23    25    2
    27     4     5   ar
    28     5     6    1
    29     5     1   ar
    30    18     9   ar
    31    17    12   ar
    32    22    20    1
    33    33    34    1
    34    24    26    1
    35    24    27    1
    36     6     7    1
    37     6     8    1
@<TRIPOS>MOLECULE
*****
 34 37 0 0 0
SMALL
GASTEIGER

@<TRIPOS>ATOM
      1 N         140.8985  141.1828  167.3220 N.ar    1  UNL1       -0.2417
      2 N         140.5105  142.1625  166.2545 N.ar    1  UNL1       -0.1682
      3 C         141.5528  142.1112  165.1771 C.ar    1  UNL1        0.1079
      4 C         142.5851  141.0998  165.5786 C.ar    1  UNL1        0.1031
      5 C         142.1808  140.5259  166.9042 C.ar    1  UNL1        0.1279
      6 N         142.9275  139.4790  167.6765 N.pl3   1  UNL1       -0.3427
      7 H         143.7651  139.1063  167.3175 H       1  UNL1        0.1437
      8 H         142.5801  139.1646  168.5424 H       1  UNL1        0.1437
      9 C         141.5614  142.9281  163.9189 C.ar    1  UNL1        0.0197
     10 C         142.4542  144.1285  163.8101 C.ar    1  UNL1        0.0031
     11 C         142.4627  144.9452  162.5521 C.ar    1  UNL1        0.0193
     12 C         141.5784  144.5615  161.4028 C.ar    1  UNL1        0.0844
     13 N         141.5869  145.3784  160.1447 N.ar    1  UNL1       -0.2117
     14 C         140.7026  144.9947  158.9954 C.ar    1  UNL1        0.2247
     15 C         139.8098  143.7942  159.1042 C.ar    1  UNL1        0.0577
     16 C         139.8013  142.9775  160.3623 C.ar    1  UNL1        0.0063
     17 C         140.6856  143.3611  161.5116 C.ar    1  UNL1        0.0180
     18 C         140.6771  142.5444  162.7697 C.ar    1  UNL1        0.0031
     19 O         140.7111  145.8114  157.7373 O.3     1  UNL1       -0.4640
     20 C         139.9928  145.3166  156.5170 C.3     1  UNL1        0.1678
     21 C         139.9181  144.3898  155.3399 C.3     1  UNL1        0.0473
     22 C         138.8232  145.3864  155.5804 C.3     1  UNL1        0.0473
     23 C         143.8072  140.7274  164.7926 C.2     1  UNL1        0.2470
     24 N         143.9596  139.3343  164.2580 N.am    1  UNL1       -0.3252
     25 O         144.8771  141.7484  164.5412 O.2     1  UNL1       -0.2702
     26 H         143.2575  138.6642  164.4230 H       1  UNL1        0.1453
     27 H         144.7618  139.0900  163.7421 H       1  UNL1        0.1453
     28 C         140.8979  141.9988  169.2800 C.3     1  UNL1        0.0246
     29 C         140.1379  140.9081  168.5853 C.3     1  UNL1        0.0903
     30 C         139.3779  139.8173  167.8906 C.3     1  UNL1        0.0246
     31 C         139.3773  140.6334  169.8486 C.3     1  UNL1        0.0543
     32 C         140.0749  140.0177  171.0252 C.3     1  UNL1        0.1391
     33 O         139.4412  138.8724  171.7577 O.3     1  UNL1       -0.3819
     34 H         138.6285  139.1761  172.1916 H       1  UNL1        0.2104
@<TRIPOS>BOND
     1    28    29    1
     2    29    30    1
     3    29    31    1
     4    31    32    1
     5    32    33    1
     6    29     1    1
     7     1     2   ar
     8     2     3   ar
     9     3     9    1
    10     9    10   ar
    11    10    11   ar
    12    11    12   ar
    13    12    13   ar
    14    13    14   ar
    15    14    19    1
    16    19    20    1
    17    20    21    1
    18    21    22    1
    19    14    15   ar
    20    15    16   ar
    21    16    17   ar
    22    17    18   ar
    23     3     4   ar
    24     4    23    1
    25    23    24   am
    26    23    25    2
    27     4     5   ar
    28     5     6    1
    29     5     1   ar
    30    18     9   ar
    31    17    12   ar
    32    22    20    1
    33    33    34    1
    34    24    26    1
    35    24    27    1
    36     6     7    1
    37     6     8    1
@<TRIPOS>MOLECULE
*****
 34 37 0 0 0
SMALL
GASTEIGER

@<TRIPOS>ATOM
      1 N         141.5420  140.4390  167.8792 N.ar    1  UNL1       -0.2417
      2 N         142.2757  140.1826  166.5963 N.ar    1  UNL1       -0.1682
      3 C         141.3058  139.5887  165.6183 C.ar    1  UNL1        0.1079
      4 C         139.9726  139.4779  166.2967 C.ar    1  UNL1        0.1031
      5 C         140.1186  140.0034  167.6940 C.ar    1  UNL1        0.1279
      6 N         139.0319  140.0799  168.7252 N.pl3   1  UNL1       -0.3427
      7 H         138.1240  139.7675  168.5077 H       1  UNL1        0.1437
      8 H         139.2266  140.4426  169.6195 H       1  UNL1        0.1437
      9 C         141.6149  139.1776  164.2091 C.ar    1  UNL1        0.0197
     10 C         141.3995  137.7573  163.7778 C.ar    1  UNL1        0.0031
     11 C         141.7086  137.3463  162.3687 C.ar    1  UNL1        0.0193
     12 C         142.2330  138.3557  161.3910 C.ar    1  UNL1        0.0844
     13 N         142.5421  137.9447  159.9818 N.ar    1  UNL1       -0.2117
     14 C         143.0666  138.9541  159.0041 C.ar    1  UNL1        0.2247
     15 C         143.2819  140.3746  159.4354 C.ar    1  UNL1        0.0577
     16 C         142.9729  140.7855  160.8445 C.ar    1  UNL1        0.0063
     17 C         142.4484  139.7761  161.8223 C.ar    1  UNL1        0.0180
     18 C         142.1393  140.1871  163.2313 C.ar    1  UNL1        0.0031
     19 O         143.3756  138.5431  157.5950 O.3     1  UNL1       -0.4640
     20 C         142.8373  137.2512  157.0553 C.3     1  UNL1        0.1678
     21 C         141.7956  136.5011  156.2793 C.3     1  UNL1        0.0473
     22 C         142.9467  135.7637  156.8965 C.3     1  UNL1        0.0473
     23 C         138.7144  138.9367  165.6852 C.2     1  UNL1        0.2470
     24 N         138.0680  137.7112  166.2599 N.am    1  UNL1       -0.3252
     25 O         138.1025  139.6211  164.4989 O.2     1  UNL1       -0.2702
     26 H         138.4696  137.2620  167.0385 H       1  UNL1        0.1453
     27 H         137.2422  137.3561  165.8585 H       1  UNL1        0.1453
     28 C         142.4312  139.6488  169.6356 C.3     1  UNL1        0.0246
     29 C         142.1286  141.0275  169.1280 C.3     1  UNL1        0.0903
     30 C         141.8261  142.4061  168.6204 C.3     1  UNL1        0.0246
     31 C         142.7152  141.6160  170.3768 C.3     1  UNL1        0.0543
     32 C         143.5753  142.8422  170.2957 C.3     1  UNL1        0.1391
     33 O         143.3708  143.9673  171.2665 O.3     1  UNL1       -0.3819
     34 H         142.5007  144.3691  171.1171 H       1  UNL1        0.2104
@<TRIPOS>BOND
     1    28    29    1
     2    29    30    1
     3    29    31    1
     4    31    32    1
     5    32    33    1
     6    29     1    1
     7     1     2   ar
     8     2     3   ar
     9     3     9    1
    10     9    10   ar
    11    10    11   ar
    12    11    12   ar
    13    12    13   ar
    14    13    14   ar
    15    14    19    1
    16    19    20    1
    17    20    21    1
    18    21    22    1
    19    14    15   ar
    20    15    16   ar
    21    16    17   ar
    22    17    18   ar
    23     3     4   ar
    24     4    23    1
    25    23    24   am
    26    23    25    2
    27     4     5   ar
    28     5     6    1
    29     5     1   ar
    30    18     9   ar
    31    17    12   ar
    32    22    20    1
    33    33    34    1
    34    24    26    1
    35    24    27    1
    36     6     7    1
    37     6     8    1
@<TRIPOS>MOLECULE
*****
 34 37 0 0 0
SMALL
GASTEIGER

@<TRIPOS>ATOM
      1 N         140.4296  140.7423  167.2828 N.ar    1  UNL1       -0.2417
      2 N         140.0436  140.0013  166.0371 N.ar    1  UNL1       -0.1682
      3 C         139.5577  141.0041  165.0329 C.ar    1  UNL1        0.1079
      4 C         139.6434  142.3649  165.6580 C.ar    1  UNL1        0.1031
      5 C         140.1822  142.2032  167.0485 C.ar    1  UNL1        0.1279
      6 N         140.4302  143.3082  168.0321 N.pl3   1  UNL1       -0.3427
      7 H         140.2353  144.2409  167.7841 H       1  UNL1        0.1437
      8 H         140.7877  143.1009  168.9257 H       1  UNL1        0.1437
      9 C         139.0715  140.6995  163.6469 C.ar    1  UNL1        0.0197
     10 C         138.3864  139.3959  163.3620 C.ar    1  UNL1        0.0031
     11 C         137.9003  139.0914  161.9761 C.ar    1  UNL1        0.0193
     12 C         138.0992  140.0904  160.8750 C.ar    1  UNL1        0.0844
     13 N         137.6130  139.7858  159.4890 N.ar    1  UNL1       -0.2117
     14 C         137.8120  140.7849  158.3880 C.ar    1  UNL1        0.2247
     15 C         138.4972  142.0886  158.6730 C.ar    1  UNL1        0.0577
     16 C         138.9833  142.3931  160.0589 C.ar    1  UNL1        0.0063
     17 C         138.7843  141.3940  161.1599 C.ar    1  UNL1        0.0180
     18 C         139.2705  141.6986  162.5459 C.ar    1  UNL1        0.0031
     19 O         137.3259  140.4804  157.0021 O.3     1  UNL1       -0.4640
     20 C         137.2062  141.5814  155.9904 C.3     1  UNL1        0.1678
     21 C         137.5843  142.1752  154.6658 C.3     1  UNL1        0.0473
     22 C         136.6209  142.8946  155.5627 C.3     1  UNL1        0.0473
     23 C         139.2579  143.6601  165.0070 C.2     1  UNL1        0.2470
     24 N         140.3201  144.5931  164.5060 N.am    1  UNL1       -0.3252
     25 O         137.8100  144.0224  164.8571 O.2     1  UNL1       -0.2702
     26 H         141.2704  144.3554  164.6044 H       1  UNL1        0.1453
     27 H         140.0671  145.4432  164.0787 H       1  UNL1        0.1453
     28 C         139.5861  140.1114  169.1241 C.3     1  UNL1        0.0246
     29 C         140.9683  140.1301  168.5417 C.3     1  UNL1        0.0903
     30 C         142.3505  140.1488  167.9594 C.3     1  UNL1        0.0246
     31 C         141.5070  139.5179  169.8007 C.3     1  UNL1        0.0543
     32 C         142.6061  140.2032  170.5572 C.3     1  UNL1        0.1391
     33 O         142.3794  140.6462  171.9722 O.3     1  UNL1       -0.3819
     34 H         141.7096  141.3476  171.9880 H       1  UNL1        0.2104
@<TRIPOS>BOND
     1    28    29    1
     2    29    30    1
     3    29    31    1
     4    31    32    1
     5    32    33    1
     6    29     1    1
     7     1     2   ar
     8     2     3   ar
     9     3     9    1
    10     9    10   ar
    11    10    11   ar
    12    11    12   ar
    13    12    13   ar
    14    13    14   ar
    15    14    19    1
    16    19    20    1
    17    20    21    1
    18    21    22    1
    19    14    15   ar
    20    15    16   ar
    21    16    17   ar
    22    17    18   ar
    23     3     4   ar
    24     4    23    1
    25    23    24   am
    26    23    25    2
    27     4     5   ar
    28     5     6    1
    29     5     1   ar
    30    18     9   ar
    31    17    12   ar
    32    22    20    1
    33    33    34    1
    34    24    26    1
    35    24    27    1
    36     6     7    1
    37     6     8    1
