@<TRIPOS>MOLECULE
*****
 35 39 0 0 0
SMALL
GASTEIGER

@<TRIPOS>ATOM
      1 C         139.2196  139.0595  166.1470 C.3     1  UNL1        0.0546
      2 C         138.5103  139.4789  167.4004 C.3     1  UNL1        0.0176
      3 C         139.5330  140.0291  168.3498 C.3     1  UNL1        0.0268
      4 C         139.7267  140.6284  169.7111 C.3     1  UNL1        0.0727
      5 N         141.1879  140.9194  169.8859 N.3     1  UNL1       -0.2711
      6 C         141.8273  141.5237  171.1008 C.3     1  UNL1        0.0896
      7 C         141.8972  140.4999  168.6326 C.3     1  UNL1        0.0808
      8 C         140.8745  139.9497  167.6832 C.3     1  UNL1        0.0863
      9 C         140.6808  139.3505  166.3218 C.3     1  UNL1        0.0257
     10 C         142.2158  139.8704  167.0165 C.2     1  UNL1        0.2264
     11 O         143.2320  138.8748  167.4922 O.2     1  UNL1       -0.2748
     12 N         142.5411  140.7866  165.8742 N.am    1  UNL1       -0.2750
     13 C         143.8824  140.7072  165.2076 C.3     1  UNL1        0.1000
     14 C         144.2076  141.6234  164.0653 C.3     1  UNL1        0.0670
     15 C         143.1914  142.6190  163.5897 C.ar    1  UNL1        0.0583
     16 N         143.5166  143.5352  162.4474 N.ar    1  UNL1       -0.2484
     17 C         142.5005  144.5308  161.9717 C.ar    1  UNL1        0.1023
     18 C         141.1590  144.6101  162.6384 C.ar    1  UNL1        0.0902
     19 C         140.8339  143.6939  163.7807 C.ar    1  UNL1        0.0040
     20 C         141.8500  142.6983  164.2563 C.ar    1  UNL1        0.0113
     21 C         141.5249  141.7822  165.3986 C.3     1  UNL1        0.1213
     22 C         140.1429  145.6057  162.1628 C.3     1  UNL1        0.4200
     23 F         139.1267  146.6012  161.6871 F       1  UNL1       -0.1658
     24 F         139.3964  145.4615  163.4558 F       1  UNL1       -0.1658
     25 F         140.8893  145.7499  160.8697 F       1  UNL1       -0.1658
     26 N         138.5802  138.4551  164.9321 N.3     1  UNL1       -0.2975
     27 H         139.0726  137.5820  164.7437 H       1  UNL1        0.1232
     28 C         139.2433  138.6777  162.4300 C.3     1  UNL1        0.1591
     29 C         139.2104  139.4433  161.1405 C.3     1  UNL1        0.1729
     30 O         138.4814  140.7519  161.0636 O.3     1  UNL1       -0.3511
     31 C         137.7852  141.2950  162.2763 C.3     1  UNL1        0.1437
     32 C         137.8181  140.5294  163.5658 C.3     1  UNL1        0.0503
     33 C         138.5472  139.2207  163.6426 C.3     1  UNL1        0.0865
     34 C         141.3610  137.3162  163.0719 C.3     1  UNL1        0.1742
     35 O         139.9724  137.3691  162.5069 O.3     1  UNL1       -0.3496
@<TRIPOS>BOND
     1    34    35    1
     2    35    28    1
     3    28    29    1
     4    29    30    1
     5    30    31    1
     6    31    32    1
     7    32    33    1
     8    33    26    1
     9     1    26    1
    10     1     2    1
    11     3     2    1
    12     3     4    1
    13     4     5    1
    14     5     6    1
    15     5     7    1
    16     7     8    1
    17     8    10    1
    18    10    11    2
    19    10    12   am
    20    12    13    1
    21    13    14    1
    22    14    15    1
    23    15    16   ar
    24    16    17   ar
    25    17    18   ar
    26    18    22    1
    27    22    23    1
    28    22    24    1
    29    22    25    1
    30    18    19   ar
    31    19    20   ar
    32    20    21    1
    33     8     9    1
    34    33    28    1
    35     9     1    1
    36     8     3    1
    37    21    12    1
    38    20    15   ar
    39    26    27    1
@<TRIPOS>MOLECULE
*****
 35 39 0 0 0
SMALL
GASTEIGER

@<TRIPOS>ATOM
      1 C         139.1803  139.0475  166.3041 C.3     1  UNL1        0.0546
      2 C         138.4745  139.5310  167.5361 C.3     1  UNL1        0.0176
      3 C         139.4986  140.1371  168.4493 C.3     1  UNL1        0.0268
      4 C         139.6953  140.8105  169.7751 C.3     1  UNL1        0.0727
      5 N         141.1557  141.1177  169.9268 N.3     1  UNL1       -0.2711
      6 C         141.7975  141.7904  171.1040 C.3     1  UNL1        0.0896
      7 C         141.8615  140.6342  168.6947 C.3     1  UNL1        0.0808
      8 C         140.8374  140.0282  167.7816 C.3     1  UNL1        0.0863
      9 C         140.6406  139.3548  166.4558 C.3     1  UNL1        0.0257
     10 C         142.1761  139.9192  167.1139 C.2     1  UNL1        0.2264
     11 O         143.1805  138.9196  167.6058 O.2     1  UNL1       -0.2748
     12 N         142.5105  140.8099  165.9541 N.am    1  UNL1       -0.2750
     13 C         143.8493  140.7009  165.2864 C.3     1  UNL1        0.1000
     14 C         144.1836  141.5915  164.1267 C.3     1  UNL1        0.0670
     15 C         143.1792  142.5911  163.6347 C.ar    1  UNL1        0.0583
     16 N         143.5137  143.4818  162.4750 N.ar    1  UNL1       -0.2484
     17 C         142.5093  144.4814  161.9830 C.ar    1  UNL1        0.1023
     18 C         141.1705  144.5903  162.6507 C.ar    1  UNL1        0.0902
     19 C         140.8361  143.6997  163.8104 C.ar    1  UNL1        0.0040
     20 C         141.8405  142.7001  164.3024 C.ar    1  UNL1        0.0113
     21 C         141.5062  141.8094  165.4621 C.3     1  UNL1        0.1213
     22 C         140.1661  145.5899  162.1588 C.3     1  UNL1        0.4200
     23 F         139.1618  146.5895  161.6668 F       1  UNL1       -0.1658
     24 F         139.3981  145.4486  163.4395 F       1  UNL1       -0.1658
     25 F         140.9341  145.7312  160.8781 F       1  UNL1       -0.1658
     26 N         138.5385  138.3748  165.1269 N.3     1  UNL1       -0.2975
     27 H         138.6975  137.3734  165.2372 H       1  UNL1        0.1232
     28 C         138.7258  140.1131  163.2051 C.3     1  UNL1        0.1591
     29 C         139.1546  140.4688  161.8124 C.3     1  UNL1        0.1729
     30 O         139.8249  139.4418  160.9487 O.3     1  UNL1       -0.3511
     31 C         140.0663  138.0590  161.4778 C.3     1  UNL1        0.1437
     32 C         139.6375  137.7034  162.8705 C.3     1  UNL1        0.0503
     33 C         138.9673  138.7305  163.7342 C.3     1  UNL1        0.0865
     34 C         137.4097  142.3406  163.4428 C.3     1  UNL1        0.1742
     35 O         138.0556  141.1402  164.0688 O.3     1  UNL1       -0.3496
@<TRIPOS>BOND
     1    34    35    1
     2    35    28    1
     3    28    29    1
     4    29    30    1
     5    30    31    1
     6    31    32    1
     7    32    33    1
     8    33    26    1
     9     1    26    1
    10     1     2    1
    11     3     2    1
    12     3     4    1
    13     4     5    1
    14     5     6    1
    15     5     7    1
    16     7     8    1
    17     8    10    1
    18    10    11    2
    19    10    12   am
    20    12    13    1
    21    13    14    1
    22    14    15    1
    23    15    16   ar
    24    16    17   ar
    25    17    18   ar
    26    18    22    1
    27    22    23    1
    28    22    24    1
    29    22    25    1
    30    18    19   ar
    31    19    20   ar
    32    20    21    1
    33     8     9    1
    34    33    28    1
    35     9     1    1
    36     8     3    1
    37    21    12    1
    38    20    15   ar
    39    26    27    1
@<TRIPOS>MOLECULE
*****
 35 39 0 0 0
SMALL
GASTEIGER

@<TRIPOS>ATOM
      1 C         140.1649  137.7861  164.1279 C.3     1  UNL1        0.0546
      2 C         138.8452  137.7926  164.8409 C.3     1  UNL1        0.0176
      3 C         139.0150  138.5519  166.1233 C.3     1  UNL1        0.0268
      4 C         138.3043  139.0252  167.3566 C.3     1  UNL1        0.0727
      5 N         139.2897  139.7805  168.1983 N.3     1  UNL1       -0.2711
      6 C         139.0052  140.4285  169.5210 C.3     1  UNL1        0.0896
      7 C         140.6094  139.7740  167.4853 C.3     1  UNL1        0.0808
      8 C         140.4396  139.0147  166.2029 C.3     1  UNL1        0.0863
      9 C         141.1503  138.5414  164.9697 C.3     1  UNL1        0.0257
     10 C         141.8642  139.4775  166.2825 C.2     1  UNL1        0.2264
     11 O         142.8798  138.6555  167.0193 O.2     1  UNL1       -0.2748
     12 N         142.2732  140.7623  165.6252 N.am    1  UNL1       -0.2750
     13 C         143.6978  141.2251  165.7047 C.3     1  UNL1        0.1000
     14 C         144.1068  142.5099  165.0474 C.3     1  UNL1        0.0670
     15 C         143.0912  143.3319  164.3106 C.ar    1  UNL1        0.0583
     16 N         143.5003  144.6167  163.6533 N.ar    1  UNL1       -0.2484
     17 C         142.4847  145.4387  162.9164 C.ar    1  UNL1        0.1023
     18 C         141.0600  144.9758  162.8369 C.ar    1  UNL1        0.0902
     19 C         140.6511  143.6910  163.4942 C.ar    1  UNL1        0.0040
     20 C         141.6666  142.8691  164.2310 C.ar    1  UNL1        0.0113
     21 C         141.2577  141.5843  164.8883 C.3     1  UNL1        0.1213
     22 C         140.0444  145.7978  162.1000 C.3     1  UNL1        0.4200
     23 F         139.0289  146.6197  161.3632 F       1  UNL1       -0.1658
     24 F         140.9843  145.9164  160.9370 F       1  UNL1       -0.1658
     25 F         139.1046  145.6791  163.2630 F       1  UNL1       -0.1658
     26 N         140.4493  137.1381  162.8052 N.3     1  UNL1       -0.2975
     27 H         141.1201  136.3903  162.9819 H       1  UNL1        0.1232
     28 C         140.0660  138.6810  160.7504 C.3     1  UNL1        0.1591
     29 C         140.6157  139.4971  159.6182 C.3     1  UNL1        0.1729
     30 O         142.0982  139.5863  159.4086 O.3     1  UNL1       -0.3511
     31 C         143.0313  138.8595  160.3312 C.3     1  UNL1        0.1437
     32 C         142.4816  138.0434  161.4635 C.3     1  UNL1        0.0503
     33 C         140.9990  137.9542  161.6730 C.3     1  UNL1        0.0865
     34 C         137.8641  139.6790  161.7020 C.3     1  UNL1        0.1742
     35 O         138.5835  138.5918  160.9600 O.3     1  UNL1       -0.3496
@<TRIPOS>BOND
     1    34    35    1
     2    35    28    1
     3    28    29    1
     4    29    30    1
     5    30    31    1
     6    31    32    1
     7    32    33    1
     8    33    26    1
     9     1    26    1
    10     1     2    1
    11     3     2    1
    12     3     4    1
    13     4     5    1
    14     5     6    1
    15     5     7    1
    16     7     8    1
    17     8    10    1
    18    10    11    2
    19    10    12   am
    20    12    13    1
    21    13    14    1
    22    14    15    1
    23    15    16   ar
    24    16    17   ar
    25    17    18   ar
    26    18    22    1
    27    22    23    1
    28    22    24    1
    29    22    25    1
    30    18    19   ar
    31    19    20   ar
    32    20    21    1
    33     8     9    1
    34    33    28    1
    35     9     1    1
    36     8     3    1
    37    21    12    1
    38    20    15   ar
    39    26    27    1
@<TRIPOS>MOLECULE
*****
 35 39 0 0 0
SMALL
GASTEIGER

@<TRIPOS>ATOM
      1 C         138.6255  141.9162  159.8440 C.3     1  UNL1        0.0546
      2 C         138.1183  140.5668  159.4296 C.3     1  UNL1        0.0176
      3 C         139.2042  139.8815  158.6542 C.3     1  UNL1        0.0268
      4 C         139.5619  138.6240  157.9189 C.3     1  UNL1        0.0727
      5 N         140.9613  138.7728  157.3997 N.3     1  UNL1       -0.2711
      6 C         141.7202  137.7513  156.6054 C.3     1  UNL1        0.0896
      7 C         141.4685  140.1222  157.8141 C.3     1  UNL1        0.0808
      8 C         140.3826  140.8075  158.5894 C.3     1  UNL1        0.0863
      9 C         140.0249  142.0650  159.3248 C.3     1  UNL1        0.0257
     10 C         141.5609  141.7334  158.5247 C.2     1  UNL1        0.2264
     11 O         141.7139  142.6725  157.3651 O.2     1  UNL1       -0.2748
     12 N         142.5862  141.7202  159.6195 N.am    1  UNL1       -0.2750
     13 C         143.7645  142.6462  159.5548 C.3     1  UNL1        0.1000
     14 C         144.7897  142.6330  160.6496 C.3     1  UNL1        0.0670
     15 C         144.6366  141.6938  161.8092 C.ar    1  UNL1        0.0583
     16 N         145.6619  141.6807  162.9040 N.ar    1  UNL1       -0.2484
     17 C         145.5089  140.7416  164.0636 C.ar    1  UNL1        0.1023
     18 C         144.3305  139.8156  164.1283 C.ar    1  UNL1        0.0902
     19 C         143.3053  139.8288  163.0335 C.ar    1  UNL1        0.0040
     20 C         143.4583  140.7679  161.8739 C.ar    1  UNL1        0.0113
     21 C         142.4331  140.7811  160.7791 C.3     1  UNL1        0.1213
     22 C         144.1774  138.8765  165.2879 C.3     1  UNL1        0.4200
     23 F         144.0244  137.9374  166.4475 F       1  UNL1       -0.1658
     24 F         145.6615  138.6589  165.3076 F       1  UNL1       -0.1658
     25 F         142.6934  139.0941  165.2682 F       1  UNL1       -0.1658
     26 N         137.8665  142.9377  160.6383 N.3     1  UNL1       -0.2975
     27 H         138.1407  143.8524  160.2800 H       1  UNL1        0.1232
     28 C         138.3534  144.2918  162.8014 C.3     1  UNL1        0.1591
     29 C         138.5062  144.3473  164.2925 C.3     1  UNL1        0.1729
     30 O         138.3249  143.1039  165.1118 O.3     1  UNL1       -0.3511
     31 C         137.9908  141.8051  164.4398 C.3     1  UNL1        0.1437
     32 C         137.8380  141.7496  162.9487 C.3     1  UNL1        0.0503
     33 C         138.0193  142.9931  162.1294 C.3     1  UNL1        0.0865
     34 C         139.9149  146.0286  161.6631 C.3     1  UNL1        0.1742
     35 O         138.5347  145.5352  161.9822 O.3     1  UNL1       -0.3496
@<TRIPOS>BOND
     1    34    35    1
     2    35    28    1
     3    28    29    1
     4    29    30    1
     5    30    31    1
     6    31    32    1
     7    32    33    1
     8    33    26    1
     9     1    26    1
    10     1     2    1
    11     3     2    1
    12     3     4    1
    13     4     5    1
    14     5     6    1
    15     5     7    1
    16     7     8    1
    17     8    10    1
    18    10    11    2
    19    10    12   am
    20    12    13    1
    21    13    14    1
    22    14    15    1
    23    15    16   ar
    24    16    17   ar
    25    17    18   ar
    26    18    22    1
    27    22    23    1
    28    22    24    1
    29    22    25    1
    30    18    19   ar
    31    19    20   ar
    32    20    21    1
    33     8     9    1
    34    33    28    1
    35     9     1    1
    36     8     3    1
    37    21    12    1
    38    20    15   ar
    39    26    27    1
@<TRIPOS>MOLECULE
*****
 35 39 0 0 0
SMALL
GASTEIGER

@<TRIPOS>ATOM
      1 C         141.8686  138.9469  165.8500 C.3     1  UNL1        0.0546
      2 C         141.9122  137.8960  164.7806 C.3     1  UNL1        0.0176
      3 C         140.6833  138.0455  163.9335 C.3     1  UNL1        0.0268
      4 C         139.9508  137.4884  162.7490 C.3     1  UNL1        0.0727
      5 N         138.6949  138.2873  162.5629 N.3     1  UNL1       -0.2711
      6 C         137.6637  138.0729  161.4948 C.3     1  UNL1        0.0896
      7 C         138.6513  139.3382  163.6323 C.3     1  UNL1        0.0808
      8 C         139.8802  139.1887  164.4794 C.3     1  UNL1        0.0863
      9 C         140.6127  139.7458  165.6639 C.3     1  UNL1        0.0257
     10 C         139.0771  140.3319  165.0254 C.2     1  UNL1        0.2264
     11 O         138.2584  140.1472  166.2686 O.2     1  UNL1       -0.2748
     12 N         139.0927  141.6600  164.3281 N.am    1  UNL1       -0.2750
     13 C         138.2896  142.8032  164.8740 C.3     1  UNL1        0.1000
     14 C         138.3053  144.1312  164.1767 C.3     1  UNL1        0.0670
     15 C         139.1240  144.3159  162.9335 C.ar    1  UNL1        0.0583
     16 N         139.1396  145.6439  162.2362 N.ar    1  UNL1       -0.2484
     17 C         139.9583  145.8287  160.9930 C.ar    1  UNL1        0.1023
     18 C         140.7614  144.6854  160.4471 C.ar    1  UNL1        0.0902
     19 C         140.7458  143.3574  161.1444 C.ar    1  UNL1        0.0040
     20 C         139.9271  143.1727  162.3876 C.ar    1  UNL1        0.0113
     21 C         139.9114  141.8447  163.0849 C.3     1  UNL1        0.1213
     22 C         141.5801  144.8701  159.2039 C.3     1  UNL1        0.4200
     23 F         142.3988  145.0548  157.9606 F       1  UNL1       -0.1658
     24 F         142.6215  143.9397  159.7514 F       1  UNL1       -0.1658
     25 F         140.5387  145.8006  158.6563 F       1  UNL1       -0.1658
     26 N         142.8997  139.1613  166.9181 N.3     1  UNL1       -0.2975
     27 H         143.0918  138.2479  167.3296 H       1  UNL1        0.1232
     28 C         142.8181  141.5739  167.8785 C.3     1  UNL1        0.1591
     29 C         142.5364  142.5106  169.0158 C.3     1  UNL1        0.1729
     30 O         142.0546  141.9712  170.3299 O.3     1  UNL1       -0.3511
     31 C         141.8545  140.4951  170.5068 C.3     1  UNL1        0.1437
     32 C         142.1362  139.5585  169.3695 C.3     1  UNL1        0.0503
     33 C         142.6180  140.0979  168.0554 C.3     1  UNL1        0.0865
     34 C         142.3555  142.8574  165.6675 C.3     1  UNL1        0.1742
     35 O         143.3000  142.1133  166.5644 O.3     1  UNL1       -0.3496
@<TRIPOS>BOND
     1    34    35    1
     2    35    28    1
     3    28    29    1
     4    29    30    1
     5    30    31    1
     6    31    32    1
     7    32    33    1
     8    33    26    1
     9     1    26    1
    10     1     2    1
    11     3     2    1
    12     3     4    1
    13     4     5    1
    14     5     6    1
    15     5     7    1
    16     7     8    1
    17     8    10    1
    18    10    11    2
    19    10    12   am
    20    12    13    1
    21    13    14    1
    22    14    15    1
    23    15    16   ar
    24    16    17   ar
    25    17    18   ar
    26    18    22    1
    27    22    23    1
    28    22    24    1
    29    22    25    1
    30    18    19   ar
    31    19    20   ar
    32    20    21    1
    33     8     9    1
    34    33    28    1
    35     9     1    1
    36     8     3    1
    37    21    12    1
    38    20    15   ar
    39    26    27    1
@<TRIPOS>MOLECULE
*****
 35 39 0 0 0
SMALL
GASTEIGER

@<TRIPOS>ATOM
      1 C         139.0147  141.7541  159.9999 C.3     1  UNL1        0.0546
      2 C         138.5891  140.7208  158.9994 C.3     1  UNL1        0.0176
      3 C         139.7610  139.8233  158.7327 C.3     1  UNL1        0.0268
      4 C         140.2222  138.6300  157.9496 C.3     1  UNL1        0.0727
      5 N         141.6572  138.3711  158.3014 N.3     1  UNL1       -0.2711
      6 C         142.5158  137.2719  157.7495 C.3     1  UNL1        0.0896
      7 C         142.0829  139.4044  159.3019 C.3     1  UNL1        0.0808
      8 C         140.9110  140.3019  159.5686 C.3     1  UNL1        0.0863
      9 C         140.4498  141.4952  160.3517 C.3     1  UNL1        0.0257
     10 C         142.0609  140.7805  160.4043 C.2     1  UNL1        0.2264
     11 O         143.2729  141.3696  159.7455 O.2     1  UNL1       -0.2748
     12 N         141.9989  140.6700  161.8990 N.am    1  UNL1       -0.2750
     13 C         143.1488  141.1486  162.7348 C.3     1  UNL1        0.1000
     14 C         143.0867  141.0382  164.2294 C.3     1  UNL1        0.0670
     15 C         141.8747  140.4491  164.8882 C.ar    1  UNL1        0.0583
     16 N         141.8127  140.3386  166.3829 N.ar    1  UNL1       -0.2484
     17 C         140.6007  139.7496  167.0418 C.ar    1  UNL1        0.1023
     18 C         139.4507  139.2709  166.2059 C.ar    1  UNL1        0.0902
     19 C         139.5128  139.3814  164.7113 C.ar    1  UNL1        0.0040
     20 C         140.7248  139.9705  164.0525 C.ar    1  UNL1        0.0113
     21 C         140.7869  140.0810  162.5579 C.3     1  UNL1        0.1213
     22 C         138.2387  138.6819  166.8647 C.3     1  UNL1        0.4200
     23 F         137.0267  138.0928  167.5235 F       1  UNL1       -0.1658
     24 F         138.0825  137.7241  165.7209 F       1  UNL1       -0.1658
     25 F         138.3949  139.6397  168.0085 F       1  UNL1       -0.1658
     26 N         138.1561  142.8533  160.5518 N.3     1  UNL1       -0.2975
     27 H         138.4002  143.7020  160.0414 H       1  UNL1        0.1232
     28 C         138.8118  144.4979  162.4532 C.3     1  UNL1        0.1591
     29 C         138.8746  144.8374  163.9130 C.3     1  UNL1        0.1729
     30 O         138.3443  143.8718  164.9310 O.3     1  UNL1       -0.3511
     31 C         137.7513  142.5667  164.4894 C.3     1  UNL1        0.1437
     32 C         137.6886  142.2272  163.0296 C.3     1  UNL1        0.0503
     33 C         138.2189  143.1928  162.0116 C.3     1  UNL1        0.0865
     34 C         140.7107  145.2646  160.8543 C.3     1  UNL1        0.1742
     35 O         139.3421  145.4635  161.4352 O.3     1  UNL1       -0.3496
@<TRIPOS>BOND
     1    34    35    1
     2    35    28    1
     3    28    29    1
     4    29    30    1
     5    30    31    1
     6    31    32    1
     7    32    33    1
     8    33    26    1
     9     1    26    1
    10     1     2    1
    11     3     2    1
    12     3     4    1
    13     4     5    1
    14     5     6    1
    15     5     7    1
    16     7     8    1
    17     8    10    1
    18    10    11    2
    19    10    12   am
    20    12    13    1
    21    13    14    1
    22    14    15    1
    23    15    16   ar
    24    16    17   ar
    25    17    18   ar
    26    18    22    1
    27    22    23    1
    28    22    24    1
    29    22    25    1
    30    18    19   ar
    31    19    20   ar
    32    20    21    1
    33     8     9    1
    34    33    28    1
    35     9     1    1
    36     8     3    1
    37    21    12    1
    38    20    15   ar
    39    26    27    1
@<TRIPOS>MOLECULE
*****
 35 39 0 0 0
SMALL
GASTEIGER

@<TRIPOS>ATOM
      1 C         144.1962  142.4735  160.1165 C.3     1  UNL1        0.0546
      2 C         144.0744  141.3993  159.0767 C.3     1  UNL1        0.0176
      3 C         142.9464  141.7679  158.1593 C.3     1  UNL1        0.0268
      4 C         142.1740  141.3319  156.9497 C.3     1  UNL1        0.0727
      5 N         141.1212  142.3644  156.6748 N.3     1  UNL1       -0.2711
      6 C         140.1221  142.3290  155.5565 C.3     1  UNL1        0.0896
      7 C         141.2430  143.4387  157.7146 C.3     1  UNL1        0.0808
      8 C         142.3710  143.0700  158.6321 C.3     1  UNL1        0.0863
      9 C         143.1434  143.5061  159.8417 C.3     1  UNL1        0.0257
     10 C         141.7956  144.3721  159.1049 C.2     1  UNL1        0.2264
     11 O         142.1078  145.6413  158.3689 O.2     1  UNL1       -0.2748
     12 N         140.9081  144.4050  160.3137 N.am    1  UNL1       -0.2750
     13 C         140.3327  145.7070  160.7865 C.3     1  UNL1        0.1000
     14 C         139.4452  145.7399  161.9953 C.3     1  UNL1        0.0670
     15 C         139.1330  144.4707  162.7312 C.ar    1  UNL1        0.0583
     16 N         138.2454  144.5035  163.9401 N.ar    1  UNL1       -0.2484
     17 C         137.9333  143.2343  164.6760 C.ar    1  UNL1        0.1023
     18 C         138.5087  141.9322  164.2032 C.ar    1  UNL1        0.0902
     19 C         139.3962  141.8994  162.9944 C.ar    1  UNL1        0.0040
     20 C         139.7084  143.1686  162.2584 C.ar    1  UNL1        0.0113
     21 C         140.5959  143.1358  161.0497 C.3     1  UNL1        0.1213
     22 C         138.1965  140.6630  164.9392 C.3     1  UNL1        0.4200
     23 F         137.8843  139.3938  165.6751 F       1  UNL1       -0.1658
     24 F         137.4293  140.1629  163.7512 F       1  UNL1       -0.1658
     25 F         138.9637  141.1632  166.1271 F       1  UNL1       -0.1658
     26 N         145.1953  142.5090  161.2348 N.3     1  UNL1       -0.2975
     27 H         145.9857  141.9346  160.9419 H       1  UNL1        0.1232
     28 C         144.2598  143.0179  163.6046 C.3     1  UNL1        0.1591
     29 C         143.8686  142.5496  164.9749 C.3     1  UNL1        0.1729
     30 O         144.0218  141.1043  165.3458 O.3     1  UNL1       -0.3511
     31 C         144.5662  140.1272  164.3463 C.3     1  UNL1        0.1437
     32 C         144.9574  140.5954  162.9760 C.3     1  UNL1        0.0503
     33 C         144.8042  142.0408  162.6051 C.3     1  UNL1        0.0865
     34 C         142.8239  145.1819  163.5311 C.3     1  UNL1        0.1742
     35 O         144.1065  144.4631  163.2337 O.3     1  UNL1       -0.3496
@<TRIPOS>BOND
     1    34    35    1
     2    35    28    1
     3    28    29    1
     4    29    30    1
     5    30    31    1
     6    31    32    1
     7    32    33    1
     8    33    26    1
     9     1    26    1
    10     1     2    1
    11     3     2    1
    12     3     4    1
    13     4     5    1
    14     5     6    1
    15     5     7    1
    16     7     8    1
    17     8    10    1
    18    10    11    2
    19    10    12   am
    20    12    13    1
    21    13    14    1
    22    14    15    1
    23    15    16   ar
    24    16    17   ar
    25    17    18   ar
    26    18    22    1
    27    22    23    1
    28    22    24    1
    29    22    25    1
    30    18    19   ar
    31    19    20   ar
    32    20    21    1
    33     8     9    1
    34    33    28    1
    35     9     1    1
    36     8     3    1
    37    21    12    1
    38    20    15   ar
    39    26    27    1
@<TRIPOS>MOLECULE
*****
 35 39 0 0 0
SMALL
GASTEIGER

@<TRIPOS>ATOM
      1 C         138.9577  142.9403  165.2254 C.3     1  UNL1        0.0546
      2 C         139.8688  143.6447  166.1865 C.3     1  UNL1        0.0176
      3 C         140.5585  142.6045  167.0185 C.3     1  UNL1        0.0268
      4 C         141.5479  142.3969  168.1266 C.3     1  UNL1        0.0727
      5 N         141.6745  140.9213  168.3646 N.3     1  UNL1       -0.2711
      6 C         142.5573  140.2653  169.3847 C.3     1  UNL1        0.0896
      7 C         140.7634  140.2169  167.4036 C.3     1  UNL1        0.0808
      8 C         140.0737  141.2572  166.5716 C.3     1  UNL1        0.0863
      9 C         139.0844  141.4648  165.4634 C.3     1  UNL1        0.0257
     10 C         139.5889  139.9099  166.1247 C.2     1  UNL1        0.2264
     11 O         138.6499  139.1251  166.9920 O.2     1  UNL1       -0.2748
     12 N         140.0430  139.3474  164.8103 N.am    1  UNL1       -0.2750
     13 C         139.5582  138.0001  164.3634 C.3     1  UNL1        0.1000
     14 C         140.0123  137.4377  163.0491 C.3     1  UNL1        0.0670
     15 C         140.9513  138.2226  162.1817 C.ar    1  UNL1        0.0583
     16 N         141.4054  137.6601  160.8674 N.ar    1  UNL1       -0.2484
     17 C         142.3444  138.4449  160.0000 C.ar    1  UNL1        0.1023
     18 C         142.8292  139.7923  160.4470 C.ar    1  UNL1        0.0902
     19 C         142.3751  140.3547  161.7613 C.ar    1  UNL1        0.0040
     20 C         141.4361  139.5698  162.6286 C.ar    1  UNL1        0.0113
     21 C         140.9820  140.1323  163.9429 C.3     1  UNL1        0.1213
     22 C         143.7682  140.5771  159.5796 C.3     1  UNL1        0.4200
     23 F         144.7072  141.3619  158.7122 F       1  UNL1       -0.1658
     24 F         144.0738  141.4862  160.7329 F       1  UNL1       -0.1658
     25 F         143.4626  139.6680  158.4262 F       1  UNL1       -0.1658
     26 N         138.0750  143.5963  164.2053 N.3     1  UNL1       -0.2975
     27 H         137.2054  143.0636  164.1822 H       1  UNL1        0.1232
     28 C         138.1392  142.7030  161.7665 C.3     1  UNL1        0.1591
     29 C         138.6039  142.8352  160.3465 C.3     1  UNL1        0.1729
     30 O         139.4691  143.9928  159.9451 O.3     1  UNL1       -0.3511
     31 C         139.8697  145.0184  160.9639 C.3     1  UNL1        0.1437
     32 C         139.4050  144.8863  162.3840 C.3     1  UNL1        0.0503
     33 C         138.5397  143.7285  162.7853 C.3     1  UNL1        0.0865
     34 C         137.7091  140.1426  161.8628 C.3     1  UNL1        0.1742
     35 O         137.2739  141.5453  162.1678 O.3     1  UNL1       -0.3496
@<TRIPOS>BOND
     1    34    35    1
     2    35    28    1
     3    28    29    1
     4    29    30    1
     5    30    31    1
     6    31    32    1
     7    32    33    1
     8    33    26    1
     9     1    26    1
    10     1     2    1
    11     3     2    1
    12     3     4    1
    13     4     5    1
    14     5     6    1
    15     5     7    1
    16     7     8    1
    17     8    10    1
    18    10    11    2
    19    10    12   am
    20    12    13    1
    21    13    14    1
    22    14    15    1
    23    15    16   ar
    24    16    17   ar
    25    17    18   ar
    26    18    22    1
    27    22    23    1
    28    22    24    1
    29    22    25    1
    30    18    19   ar
    31    19    20   ar
    32    20    21    1
    33     8     9    1
    34    33    28    1
    35     9     1    1
    36     8     3    1
    37    21    12    1
    38    20    15   ar
    39    26    27    1
@<TRIPOS>MOLECULE
*****
 35 39 0 0 0
SMALL
GASTEIGER

@<TRIPOS>ATOM
      1 C         142.4760  143.7321  163.7943 C.3     1  UNL1        0.0546
      2 C         141.7018  144.9686  163.4456 C.3     1  UNL1        0.0176
      3 C         141.3270  144.8872  161.9955 C.3     1  UNL1        0.0268
      4 C         140.6168  145.6011  160.8837 C.3     1  UNL1        0.0727
      5 N         140.7206  144.7555  159.6491 N.3     1  UNL1       -0.2711
      6 C         140.1501  145.0881  158.3022 C.3     1  UNL1        0.0896
      7 C         141.4948  143.5190  159.9978 C.3     1  UNL1        0.0808
      8 C         141.8696  143.6004  161.4479 C.3     1  UNL1        0.0863
      9 C         142.5797  142.8865  162.5597 C.3     1  UNL1        0.0257
     10 C         142.4122  142.3136  160.9004 C.2     1  UNL1        0.2264
     11 O         143.3905  142.3356  159.7635 O.2     1  UNL1       -0.2748
     12 N         141.9766  141.0048  161.4898 N.am    1  UNL1       -0.2750
     13 C         142.5192  139.7181  160.9424 C.3     1  UNL1        0.1000
     14 C         142.0836  138.4094  161.5318 C.3     1  UNL1        0.0670
     15 C         141.1053  138.3874  162.6687 C.ar    1  UNL1        0.0583
     16 N         140.6696  137.0786  163.2581 N.ar    1  UNL1       -0.2484
     17 C         139.6914  137.0567  164.3950 C.ar    1  UNL1        0.1023
     18 C         139.1488  138.3435  164.9424 C.ar    1  UNL1        0.0902
     19 C         139.5844  139.6522  164.3530 C.ar    1  UNL1        0.0040
     20 C         140.5627  139.6742  163.2161 C.ar    1  UNL1        0.0113
     21 C         140.9983  140.9829  162.6267 C.3     1  UNL1        0.1213
     22 C         138.1705  138.3216  166.0793 C.3     1  UNL1        0.4200
     23 F         137.1922  138.2996  167.2162 F       1  UNL1       -0.1658
     24 F         138.1697  139.8213  166.1076 F       1  UNL1       -0.1658
     25 F         138.1713  136.8218  166.0511 F       1  UNL1       -0.1658
     26 N         143.0465  143.3995  165.1412 N.3     1  UNL1       -0.2975
     27 H         144.0529  143.2907  165.0161 H       1  UNL1        0.1232
     28 C         143.2461  140.8632  165.6677 C.3     1  UNL1        0.1591
     29 C         142.7676  139.6480  166.4055 C.3     1  UNL1        0.1729
     30 O         141.6110  139.7539  167.3547 O.3     1  UNL1       -0.3511
     31 C         140.9328  141.0751  167.5661 C.3     1  UNL1        0.1437
     32 C         141.4113  142.2903  166.8283 C.3     1  UNL1        0.0503
     33 C         142.5680  142.1843  165.8790 C.3     1  UNL1        0.0865
     34 C         144.6901  139.4566  164.0287 C.3     1  UNL1        0.1742
     35 O         144.4027  140.7572  164.7185 O.3     1  UNL1       -0.3496
@<TRIPOS>BOND
     1    34    35    1
     2    35    28    1
     3    28    29    1
     4    29    30    1
     5    30    31    1
     6    31    32    1
     7    32    33    1
     8    33    26    1
     9     1    26    1
    10     1     2    1
    11     3     2    1
    12     3     4    1
    13     4     5    1
    14     5     6    1
    15     5     7    1
    16     7     8    1
    17     8    10    1
    18    10    11    2
    19    10    12   am
    20    12    13    1
    21    13    14    1
    22    14    15    1
    23    15    16   ar
    24    16    17   ar
    25    17    18   ar
    26    18    22    1
    27    22    23    1
    28    22    24    1
    29    22    25    1
    30    18    19   ar
    31    19    20   ar
    32    20    21    1
    33     8     9    1
    34    33    28    1
    35     9     1    1
    36     8     3    1
    37    21    12    1
    38    20    15   ar
    39    26    27    1
