@<TRIPOS>MOLECULE
*****
 36 39 0 0 0
SMALL
GASTEIGER

@<TRIPOS>ATOM
      1 C         139.5850  142.0960  163.7055 C.2     1  UNL1        0.1397
      2 C         139.6006  142.0056  162.2084 C.2     1  UNL1        0.1355
      3 N         140.4763  140.9962  161.5271 N.pl3   1  UNL1       -0.1998
      4 C         141.3363  140.0771  162.3429 C.2     1  UNL1        0.3442
      5 N         141.3206  140.1675  163.8401 N.2     1  UNL1       -0.0580
      6 C         140.4450  141.1769  164.5214 C.3     1  UNL1        0.2692
      7 H         140.4866  140.9369  160.5444 H       1  UNL1        0.2983
      8 C         140.4293  141.2673  166.0186 C.ar    1  UNL1        0.0371
      9 C         141.3072  142.2615  166.7192 C.ar    1  UNL1        0.0030
     10 C         141.2916  142.3519  168.2163 C.ar    1  UNL1        0.0295
     11 C         140.3980  141.4480  169.0130 C.ar    1  UNL1        0.1406
     12 F         140.3824  141.5384  170.5102 F       1  UNL1       -0.2042
     13 C         139.5201  140.4538  168.3125 C.ar    1  UNL1        0.0362
     14 C         139.5358  140.3634  166.8152 C.ar    1  UNL1        0.0372
     15 BR        138.6579  139.3692  166.1147 Br      1  UNL1       -0.0491
     16 C         142.2120  139.0676  161.6616 C.ar    1  UNL1        0.1931
     17 N         141.8921  138.3376  160.3909 N.ar    1  UNL1       -0.2297
     18 C         143.0437  137.4297  160.0753 C.ar    1  UNL1        0.1067
     19 C         144.0754  137.5987  161.1510 C.ar    1  UNL1        0.0577
     20 S         143.5614  138.6110  162.1313 S.2     1  UNL1       -0.0586
     21 C         138.7093  143.1055  164.3868 C.2     1  UNL1        0.3447
     22 O         137.2582  142.8047  164.6186 O.2     1  UNL1       -0.2450
     23 O         139.2847  144.4157  164.8364 O.3     1  UNL1       -0.4455
     24 C         141.7021  144.9320  164.0364 C.3     1  UNL1        0.0513
     25 C         140.2239  145.1689  163.9416 C.3     1  UNL1        0.2089
     26 C         138.7406  142.9247  161.3924 C.3     1  UNL1        0.1407
     27 N         138.9200  142.9961  159.9049 N.3     1  UNL1       -0.2585
     28 C         138.2556  141.9834  159.0200 C.3     1  UNL1        0.1052
     29 C         138.4350  142.0547  157.5324 C.3     1  UNL1        0.1594
     30 O         139.2787  143.1388  156.9299 O.3     1  UNL1       -0.3530
     31 C         139.9430  144.1514  157.8148 C.3     1  UNL1        0.1352
     32 C         140.7866  145.2355  157.2123 C.3     1  UNL1        0.0339
     33 C         139.7636  144.0801  159.3023 C.3     1  UNL1        0.1221
     34 C         140.4280  145.0928  160.1873 C.2     1  UNL1        0.0673
     35 O         141.8781  144.9435  160.5408 O.co2   1  UNL1       -0.5477
     36 O         139.6422  146.2547  160.7187 O.co2   1  UNL1       -0.5477
@<TRIPOS>UNITY_ATOM_ATTR
35 1
charge -1
@<TRIPOS>BOND
     1    24    25    1
     2    25    23    1
     3    23    21    1
     4    21    22    2
     5    21     1    1
     6     1     2    2
     7     2    26    1
     8    26    27    1
     9    27    28    1
    10    28    29    1
    11    29    30    1
    12    30    31    1
    13    31    32    1
    14    31    33    1
    15    33    34    1
    16    34    35   ar
    17    34    36   ar
    18     2     3    1
    19     3     4    1
    20     4    16    1
    21    16    17   ar
    22    17    18   ar
    23    18    19   ar
    24    19    20   ar
    25     4     5    2
    26     5     6    1
    27     6     8    1
    28     8     9   ar
    29     9    10   ar
    30    10    11   ar
    31    11    12    1
    32    11    13   ar
    33    13    14   ar
    34    14    15    1
    35     6     1    1
    36    14     8   ar
    37    33    27    1
    38    20    16   ar
    39     3     7    1
@<TRIPOS>MOLECULE
*****
 36 39 0 0 0
SMALL
GASTEIGER

@<TRIPOS>ATOM
      1 C         139.1305  141.3718  160.7675 C.2     1  UNL1        0.1397
      2 C         139.2413  140.7639  159.4008 C.2     1  UNL1        0.1355
      3 N         139.3456  141.6475  158.1931 N.pl3   1  UNL1       -0.1998
      4 C         139.3392  143.1389  158.3523 C.2     1  UNL1        0.3442
      5 N         139.2284  143.7468  159.7190 N.2     1  UNL1       -0.0580
      6 C         139.1241  142.8632  160.9267 C.3     1  UNL1        0.2692
      7 H         139.4183  141.2484  157.2960 H       1  UNL1        0.2983
      8 C         139.0133  143.4712  162.2935 C.ar    1  UNL1        0.0371
      9 C         137.6703  143.6060  162.9478 C.ar    1  UNL1        0.0030
     10 C         137.5595  144.2139  164.3146 C.ar    1  UNL1        0.0295
     11 C         138.7917  144.6871  165.0271 C.ar    1  UNL1        0.1406
     12 F         138.6809  145.2951  166.3939 F       1  UNL1       -0.2042
     13 C         140.1348  144.5523  164.3729 C.ar    1  UNL1        0.0362
     14 C         140.2456  143.9444  163.0060 C.ar    1  UNL1        0.0372
     15 BR        141.5886  143.8096  162.3517 Br      1  UNL1       -0.0491
     16 C         139.4435  144.0225  157.1446 C.ar    1  UNL1        0.1931
     17 N         138.6444  143.8884  155.8823 N.ar    1  UNL1       -0.2297
     18 C         139.0722  144.9784  154.9448 C.ar    1  UNL1        0.1067
     19 C         140.1358  145.7861  155.6277 C.ar    1  UNL1        0.0577
     20 S         140.3653  145.1954  156.9872 S.2     1  UNL1       -0.0586
     21 C         139.0262  140.4882  161.9752 C.2     1  UNL1        0.3447
     22 O         137.7073  139.8777  162.3461 O.2     1  UNL1       -0.2450
     23 O         140.2408  140.2151  162.8119 O.3     1  UNL1       -0.4455
     24 C         139.4784  140.9771  165.1758 C.3     1  UNL1        0.0513
     25 C         140.0948  139.9439  164.2799 C.3     1  UNL1        0.2089
     26 C         139.2477  139.2723  159.2415 C.3     1  UNL1        0.1407
     27 N         140.5108  138.5655  158.8478 N.3     1  UNL1       -0.2585
     28 C         141.6182  138.3971  159.8454 C.3     1  UNL1        0.1052
     29 C         142.8814  137.6903  159.4516 C.3     1  UNL1        0.1594
     30 O         143.0370  137.1519  158.0603 O.3     1  UNL1       -0.3530
     31 C         141.9296  137.3203  157.0627 C.3     1  UNL1        0.1352
     32 C         142.0852  136.7819  155.6714 C.3     1  UNL1        0.0339
     33 C         140.6665  138.0271  157.4564 C.3     1  UNL1        0.1221
     34 C         139.5591  138.1954  156.4588 C.2     1  UNL1        0.0673
     35 O         138.6818  137.0303  156.1083 O.co2   1  UNL1       -0.5477
     36 O         139.3289  139.5289  155.8117 O.co2   1  UNL1       -0.5477
@<TRIPOS>UNITY_ATOM_ATTR
35 1
charge -1
@<TRIPOS>BOND
     1    24    25    1
     2    25    23    1
     3    23    21    1
     4    21    22    2
     5    21     1    1
     6     1     2    2
     7     2    26    1
     8    26    27    1
     9    27    28    1
    10    28    29    1
    11    29    30    1
    12    30    31    1
    13    31    32    1
    14    31    33    1
    15    33    34    1
    16    34    35   ar
    17    34    36   ar
    18     2     3    1
    19     3     4    1
    20     4    16    1
    21    16    17   ar
    22    17    18   ar
    23    18    19   ar
    24    19    20   ar
    25     4     5    2
    26     5     6    1
    27     6     8    1
    28     8     9   ar
    29     9    10   ar
    30    10    11   ar
    31    11    12    1
    32    11    13   ar
    33    13    14   ar
    34    14    15    1
    35     6     1    1
    36    14     8   ar
    37    33    27    1
    38    20    16   ar
    39     3     7    1
@<TRIPOS>MOLECULE
*****
 36 39 0 0 0
SMALL
GASTEIGER

@<TRIPOS>ATOM
      1 C         140.7567  140.4109  164.5734 C.2     1  UNL1        0.1397
      2 C         140.4888  140.3382  163.0993 C.2     1  UNL1        0.1355
      3 N         140.2870  141.5981  162.3107 N.pl3   1  UNL1       -0.1998
      4 C         140.3532  142.9307  162.9961 C.2     1  UNL1        0.3442
      5 N         140.6211  143.0034  164.4701 N.2     1  UNL1       -0.0580
      6 C         140.8229  141.7435  165.2588 C.3     1  UNL1        0.2692
      7 H         140.1111  141.5504  161.3432 H       1  UNL1        0.2983
      8 C         141.0908  141.8162  166.7329 C.ar    1  UNL1        0.0371
      9 C         139.9866  141.5419  167.7103 C.ar    1  UNL1        0.0030
     10 C         140.2545  141.6146  169.1844 C.ar    1  UNL1        0.0295
     11 C         141.6267  141.9616  169.6811 C.ar    1  UNL1        0.1406
     12 F         141.8946  142.0343  171.1552 F       1  UNL1       -0.2042
     13 C         142.7310  142.2359  168.7037 C.ar    1  UNL1        0.0362
     14 C         142.4630  142.1632  167.2295 C.ar    1  UNL1        0.0372
     15 BR        143.5673  142.4375  166.2521 Br      1  UNL1       -0.0491
     16 C         140.1514  144.1906  162.2075 C.ar    1  UNL1        0.1931
     17 N         140.5624  144.4141  160.7823 N.ar    1  UNL1       -0.2297
     18 C         140.1683  145.8098  160.3995 C.ar    1  UNL1        0.1067
     19 C         139.5136  146.4490  161.5882 C.ar    1  UNL1        0.0577
     20 S         139.5032  145.4483  162.7055 S.2     1  UNL1       -0.0586
     21 C         140.9585  139.1510  165.3620 C.2     1  UNL1        0.3447
     22 O         142.3264  138.7883  165.8591 O.2     1  UNL1       -0.2450
     23 O         139.7923  138.2538  165.6535 O.3     1  UNL1       -0.4455
     24 C         137.6531  138.6077  167.0850 C.3     1  UNL1        0.0513
     25 C         138.4198  138.8367  165.8161 C.3     1  UNL1        0.2089
     26 C         140.4226  139.0056  162.4138 C.3     1  UNL1        0.1407
     27 N         141.5239  138.5833  161.4872 N.3     1  UNL1       -0.2585
     28 C         142.7724  137.9623  162.0400 C.3     1  UNL1        0.1052
     29 C         143.8738  137.5400  161.1133 C.3     1  UNL1        0.1594
     30 O         143.7267  137.7388  159.6339 O.3     1  UNL1       -0.3530
     31 C         142.4782  138.3598  159.0810 C.3     1  UNL1        0.1352
     32 C         142.3311  138.5585  157.6016 C.3     1  UNL1        0.0339
     33 C         141.3768  138.7821  160.0077 C.3     1  UNL1        0.1221
     34 C         140.1283  139.4031  159.4548 C.2     1  UNL1        0.0673
     35 O         139.9785  140.8955  159.4348 O.co2   1  UNL1       -0.5477
     36 O         139.0298  138.5318  158.9220 O.co2   1  UNL1       -0.5477
@<TRIPOS>UNITY_ATOM_ATTR
35 1
charge -1
@<TRIPOS>BOND
     1    24    25    1
     2    25    23    1
     3    23    21    1
     4    21    22    2
     5    21     1    1
     6     1     2    2
     7     2    26    1
     8    26    27    1
     9    27    28    1
    10    28    29    1
    11    29    30    1
    12    30    31    1
    13    31    32    1
    14    31    33    1
    15    33    34    1
    16    34    35   ar
    17    34    36   ar
    18     2     3    1
    19     3     4    1
    20     4    16    1
    21    16    17   ar
    22    17    18   ar
    23    18    19   ar
    24    19    20   ar
    25     4     5    2
    26     5     6    1
    27     6     8    1
    28     8     9   ar
    29     9    10   ar
    30    10    11   ar
    31    11    12    1
    32    11    13   ar
    33    13    14   ar
    34    14    15    1
    35     6     1    1
    36    14     8   ar
    37    33    27    1
    38    20    16   ar
    39     3     7    1
@<TRIPOS>MOLECULE
*****
 36 39 0 0 0
SMALL
GASTEIGER

@<TRIPOS>ATOM
      1 C         142.7293  140.3908  159.3468 C.2     1  UNL1        0.1397
      2 C         143.1349  139.3974  158.2987 C.2     1  UNL1        0.1355
      3 N         144.2004  139.7501  157.3035 N.pl3   1  UNL1       -0.1998
      4 C         144.8602  141.0961  157.3564 C.2     1  UNL1        0.3442
      5 N         144.4546  142.0894  158.4045 N.2     1  UNL1       -0.0580
      6 C         143.3891  141.7368  159.3997 C.3     1  UNL1        0.2692
      7 H         144.4666  139.0980  156.6155 H       1  UNL1        0.2983
      8 C         142.9835  142.7303  160.4479 C.ar    1  UNL1        0.0371
      9 C         141.8438  143.6705  160.1890 C.ar    1  UNL1        0.0030
     10 C         141.4382  144.6640  161.2370 C.ar    1  UNL1        0.0295
     11 C         142.1722  144.7172  162.5441 C.ar    1  UNL1        0.1406
     12 F         141.7666  145.7106  163.5922 F       1  UNL1       -0.2042
     13 C         143.3119  143.7769  162.8031 C.ar    1  UNL1        0.0362
     14 C         143.7175  142.7834  161.7549 C.ar    1  UNL1        0.0372
     15 BR        144.8572  141.8432  162.0138 Br      1  UNL1       -0.0491
     16 C         145.9256  141.4487  156.3611 C.ar    1  UNL1        0.1931
     17 N         147.0807  142.3761  156.5974 N.ar    1  UNL1       -0.2297
     18 C         147.8920  142.4364  155.3372 C.ar    1  UNL1        0.1067
     19 C         147.2384  141.5463  154.3221 C.ar    1  UNL1        0.0577
     20 S         146.0231  140.9359  154.9549 S.2     1  UNL1       -0.0586
     21 C         141.6638  140.0382  160.3420 C.2     1  UNL1        0.3447
     22 O         140.2173  140.1257  159.9548 O.2     1  UNL1       -0.2450
     23 O         142.0449  139.5980  161.7244 O.3     1  UNL1       -0.4455
     24 C         144.0114  137.9013  161.6610 C.3     1  UNL1        0.0513
     25 C         142.5730  138.2126  161.9515 C.3     1  UNL1        0.2089
     26 C         142.4751  138.0513  158.2457 C.3     1  UNL1        0.1407
     27 N         141.6440  137.6697  157.0568 N.3     1  UNL1       -0.2585
     28 C         140.2132  138.1112  156.9689 C.3     1  UNL1        0.1052
     29 C         139.3821  137.7295  155.7799 C.3     1  UNL1        0.1594
     30 O         139.9820  136.9063  154.6787 O.3     1  UNL1       -0.3530
     31 C         141.4129  136.4649  154.7665 C.3     1  UNL1        0.1352
     32 C         142.0127  135.6417  153.6654 C.3     1  UNL1        0.0339
     33 C         142.2439  136.8465  155.9555 C.3     1  UNL1        0.1221
     34 C         143.6747  136.4050  156.0433 C.2     1  UNL1        0.0673
     35 O         144.0068  135.0350  156.5561 O.co2   1  UNL1       -0.5477
     36 O         144.7735  137.3335  155.6183 O.co2   1  UNL1       -0.5477
@<TRIPOS>UNITY_ATOM_ATTR
35 1
charge -1
@<TRIPOS>BOND
     1    24    25    1
     2    25    23    1
     3    23    21    1
     4    21    22    2
     5    21     1    1
     6     1     2    2
     7     2    26    1
     8    26    27    1
     9    27    28    1
    10    28    29    1
    11    29    30    1
    12    30    31    1
    13    31    32    1
    14    31    33    1
    15    33    34    1
    16    34    35   ar
    17    34    36   ar
    18     2     3    1
    19     3     4    1
    20     4    16    1
    21    16    17   ar
    22    17    18   ar
    23    18    19   ar
    24    19    20   ar
    25     4     5    2
    26     5     6    1
    27     6     8    1
    28     8     9   ar
    29     9    10   ar
    30    10    11   ar
    31    11    12    1
    32    11    13   ar
    33    13    14   ar
    34    14    15    1
    35     6     1    1
    36    14     8   ar
    37    33    27    1
    38    20    16   ar
    39     3     7    1
@<TRIPOS>MOLECULE
*****
 36 39 0 0 0
SMALL
GASTEIGER

@<TRIPOS>ATOM
      1 C         142.8638  140.3573  159.4126 C.2     1  UNL1        0.1397
      2 C         143.2414  139.3572  158.3605 C.2     1  UNL1        0.1355
      3 N         144.2583  139.7138  157.3171 N.pl3   1  UNL1       -0.1998
      4 C         144.8977  141.0707  157.3259 C.2     1  UNL1        0.3442
      5 N         144.5202  142.0708  158.3780 N.2     1  UNL1       -0.0580
      6 C         143.5032  141.7141  159.4214 C.3     1  UNL1        0.2692
      7 H         144.5061  139.0574  156.6265 H       1  UNL1        0.2983
      8 C         143.1257  142.7144  160.4736 C.ar    1  UNL1        0.0371
      9 C         143.9251  142.8094  161.7393 C.ar    1  UNL1        0.0030
     10 C         143.5476  143.8096  162.7915 C.ar    1  UNL1        0.0295
     11 C         142.3707  144.7148  162.5780 C.ar    1  UNL1        0.1406
     12 F         141.9932  145.7150  163.6302 F       1  UNL1       -0.2042
     13 C         141.5713  144.6198  161.3123 C.ar    1  UNL1        0.0362
     14 C         141.9488  143.6196  160.2601 C.ar    1  UNL1        0.0372
     15 BR        141.1494  143.5245  158.9944 Br      1  UNL1       -0.0491
     16 C         145.9146  141.4273  156.2825 C.ar    1  UNL1        0.1931
     17 N         147.1436  142.2601  156.4974 N.ar    1  UNL1       -0.2297
     18 C         147.8697  142.3613  155.1888 C.ar    1  UNL1        0.1067
     19 C         147.0894  141.5911  154.1650 C.ar    1  UNL1        0.0577
     20 S         145.8812  141.0139  154.8410 S.2     1  UNL1       -0.0586
     21 C         141.8469  140.0006  160.4560 C.2     1  UNL1        0.3447
     22 O         140.3836  140.0922  160.1393 O.2     1  UNL1       -0.2450
     23 O         142.2932  139.5525  161.8161 O.3     1  UNL1       -0.4455
     24 C         144.4461  139.4415  163.2662 C.3     1  UNL1        0.0513
     25 C         143.6970  139.0657  162.0221 C.3     1  UNL1        0.2089
     26 C         142.6019  138.0002  158.3516 C.3     1  UNL1        0.1407
     27 N         141.7048  137.6013  157.2177 N.3     1  UNL1       -0.2585
     28 C         140.2727  138.0473  157.2017 C.3     1  UNL1        0.1052
     29 C         139.3755  137.6483  156.0677 C.3     1  UNL1        0.1594
     30 O         139.9104  136.8033  154.9497 O.3     1  UNL1       -0.3530
     31 C         141.3425  136.3573  154.9658 C.3     1  UNL1        0.1352
     32 C         141.8773  135.5122  153.8478 C.3     1  UNL1        0.0339
     33 C         142.2396  136.7562  156.0997 C.3     1  UNL1        0.1221
     34 C         143.6717  136.3102  156.1157 C.2     1  UNL1        0.0673
     35 O         144.0212  134.9267  156.5784 O.co2   1  UNL1       -0.5477
     36 O         144.7542  137.2475  155.6691 O.co2   1  UNL1       -0.5477
@<TRIPOS>UNITY_ATOM_ATTR
35 1
charge -1
@<TRIPOS>BOND
     1    24    25    1
     2    25    23    1
     3    23    21    1
     4    21    22    2
     5    21     1    1
     6     1     2    2
     7     2    26    1
     8    26    27    1
     9    27    28    1
    10    28    29    1
    11    29    30    1
    12    30    31    1
    13    31    32    1
    14    31    33    1
    15    33    34    1
    16    34    35   ar
    17    34    36   ar
    18     2     3    1
    19     3     4    1
    20     4    16    1
    21    16    17   ar
    22    17    18   ar
    23    18    19   ar
    24    19    20   ar
    25     4     5    2
    26     5     6    1
    27     6     8    1
    28     8     9   ar
    29     9    10   ar
    30    10    11   ar
    31    11    12    1
    32    11    13   ar
    33    13    14   ar
    34    14    15    1
    35     6     1    1
    36    14     8   ar
    37    33    27    1
    38    20    16   ar
    39     3     7    1
@<TRIPOS>MOLECULE
*****
 36 39 0 0 0
SMALL
GASTEIGER

@<TRIPOS>ATOM
      1 C         140.7397  139.7545  164.1768 C.2     1  UNL1        0.1397
      2 C         140.7716  139.9008  162.6843 C.2     1  UNL1        0.1355
      3 N         140.6048  141.2543  162.0597 N.pl3   1  UNL1       -0.1998
      4 C         140.4061  142.4615  162.9275 C.2     1  UNL1        0.3442
      5 N         140.3742  142.3152  164.4200 N.2     1  UNL1       -0.0580
      6 C         140.5410  140.9617  165.0446 C.3     1  UNL1        0.2692
      7 H         140.6257  141.3503  161.0801 H       1  UNL1        0.2983
      8 C         140.5091  140.8154  166.5372 C.ar    1  UNL1        0.0371
      9 C         139.3269  140.1758  167.2030 C.ar    1  UNL1        0.0030
     10 C         139.2950  140.0295  168.6954 C.ar    1  UNL1        0.0295
     11 C         140.4453  140.5228  169.5222 C.ar    1  UNL1        0.1406
     12 F         140.4134  140.3765  171.0147 F       1  UNL1       -0.2042
     13 C         141.6276  141.1623  168.8564 C.ar    1  UNL1        0.0362
     14 C         141.6595  141.3086  167.3638 C.ar    1  UNL1        0.0372
     15 BR        142.8417  141.9482  166.6980 Br      1  UNL1       -0.0491
     16 C         140.2393  143.8150  162.3028 C.ar    1  UNL1        0.1931
     17 N         139.5747  145.0019  162.9349 N.ar    1  UNL1       -0.2297
     18 C         139.6324  146.1397  161.9592 C.ar    1  UNL1        0.1067
     19 C         140.3327  145.6560  160.7240 C.ar    1  UNL1        0.0577
     20 S         140.7078  144.2193  160.9364 S.2     1  UNL1       -0.0586
     21 C         140.9065  138.4010  164.8014 C.2     1  UNL1        0.3447
     22 O         139.6990  137.5960  165.1806 O.2     1  UNL1       -0.2450
     23 O         142.2808  137.8524  165.0468 O.3     1  UNL1       -0.4455
     24 C         144.2757  139.1948  164.0624 C.3     1  UNL1        0.0513
     25 C         143.4383  138.7871  165.2384 C.3     1  UNL1        0.2089
     26 C         140.9703  138.6936  161.8164 C.3     1  UNL1        0.1407
     27 N         140.9441  138.8310  160.3229 N.3     1  UNL1       -0.2585
     28 C         139.6956  138.4984  159.5609 C.3     1  UNL1        0.1052
     29 C         139.6694  138.6359  158.0674 C.3     1  UNL1        0.1594
     30 O         140.8917  139.1060  157.3360 O.3     1  UNL1       -0.3530
     31 C         142.1402  139.4386  158.0980 C.3     1  UNL1        0.1352
     32 C         143.3624  139.9087  157.3666 C.3     1  UNL1        0.0339
     33 C         142.1664  139.3012  159.5914 C.3     1  UNL1        0.1221
     34 C         143.4149  139.6338  160.3534 C.2     1  UNL1        0.0673
     35 O         144.4716  138.5884  160.5549 O.co2   1  UNL1       -0.5477
     36 O         143.6067  141.0118  160.9140 O.co2   1  UNL1       -0.5477
@<TRIPOS>UNITY_ATOM_ATTR
35 1
charge -1
@<TRIPOS>BOND
     1    24    25    1
     2    25    23    1
     3    23    21    1
     4    21    22    2
     5    21     1    1
     6     1     2    2
     7     2    26    1
     8    26    27    1
     9    27    28    1
    10    28    29    1
    11    29    30    1
    12    30    31    1
    13    31    32    1
    14    31    33    1
    15    33    34    1
    16    34    35   ar
    17    34    36   ar
    18     2     3    1
    19     3     4    1
    20     4    16    1
    21    16    17   ar
    22    17    18   ar
    23    18    19   ar
    24    19    20   ar
    25     4     5    2
    26     5     6    1
    27     6     8    1
    28     8     9   ar
    29     9    10   ar
    30    10    11   ar
    31    11    12    1
    32    11    13   ar
    33    13    14   ar
    34    14    15    1
    35     6     1    1
    36    14     8   ar
    37    33    27    1
    38    20    16   ar
    39     3     7    1
@<TRIPOS>MOLECULE
*****
 36 39 0 0 0
SMALL
GASTEIGER

@<TRIPOS>ATOM
      1 C         140.6879  141.6327  160.8835 C.2     1  UNL1        0.1397
      2 C         140.9944  140.8908  159.6163 C.2     1  UNL1        0.1355
      3 N         140.0022  140.8858  158.4914 N.pl3   1  UNL1       -0.1998
      4 C         138.7034  141.6226  158.6336 C.2     1  UNL1        0.3442
      5 N         138.3969  142.3644  159.9007 N.2     1  UNL1       -0.0580
      6 C         139.3891  142.3695  161.0257 C.3     1  UNL1        0.2692
      7 H         140.2034  140.3989  157.6597 H       1  UNL1        0.2983
      8 C         139.0825  143.1114  162.2929 C.ar    1  UNL1        0.0371
      9 C         139.6479  144.4829  162.5144 C.ar    1  UNL1        0.0030
     10 C         139.3414  145.2248  163.7815 C.ar    1  UNL1        0.0295
     11 C         138.4694  144.5951  164.8271 C.ar    1  UNL1        0.1406
     12 F         138.1628  145.3370  166.0942 F       1  UNL1       -0.2042
     13 C         137.9040  143.2236  164.6055 C.ar    1  UNL1        0.0362
     14 C         138.2106  142.4817  163.3384 C.ar    1  UNL1        0.0372
     15 BR        137.6451  141.1101  163.1168 Br      1  UNL1       -0.0491
     16 C         137.7112  141.6176  157.5087 C.ar    1  UNL1        0.1931
     17 N         136.7136  140.5359  157.2178 N.ar    1  UNL1       -0.2297
     18 C         135.9282  140.9431  156.0065 C.ar    1  UNL1        0.1067
     19 C         136.4404  142.2766  155.5487 C.ar    1  UNL1        0.0577
     20 S         137.5424  142.6934  156.4771 S.2     1  UNL1       -0.0586
     21 C         141.6801  141.6377  162.0084 C.2     1  UNL1        0.3447
     22 O         141.6350  140.5623  163.0530 O.2     1  UNL1       -0.2450
     23 O         142.7175  142.7181  162.0886 O.3     1  UNL1       -0.4455
     24 C         143.1644  144.7488  163.6464 C.3     1  UNL1        0.0513
     25 C         143.1282  143.2659  163.4233 C.3     1  UNL1        0.2089
     26 C         142.2932  140.1540  159.4741 C.3     1  UNL1        0.1407
     27 N         143.3676  140.6939  158.5773 N.3     1  UNL1       -0.2585
     28 C         144.1666  141.8907  159.0007 C.3     1  UNL1        0.1052
     29 C         145.2410  142.4307  158.1038 C.3     1  UNL1        0.1594
     30 O         145.5162  141.7739  156.7837 O.3     1  UNL1       -0.3530
     31 C         144.7171  140.5771  156.3603 C.3     1  UNL1        0.1352
     32 C         144.9924  139.9203  155.0401 C.3     1  UNL1        0.0339
     33 C         143.6428  140.0371  157.2571 C.3     1  UNL1        0.1221
     34 C         142.8437  138.8404  156.8337 C.2     1  UNL1        0.0673
     35 O         141.4601  139.0192  156.2826 O.co2   1  UNL1       -0.5477
     36 O         143.4282  137.4649  156.9614 O.co2   1  UNL1       -0.5477
@<TRIPOS>UNITY_ATOM_ATTR
35 1
charge -1
@<TRIPOS>BOND
     1    24    25    1
     2    25    23    1
     3    23    21    1
     4    21    22    2
     5    21     1    1
     6     1     2    2
     7     2    26    1
     8    26    27    1
     9    27    28    1
    10    28    29    1
    11    29    30    1
    12    30    31    1
    13    31    32    1
    14    31    33    1
    15    33    34    1
    16    34    35   ar
    17    34    36   ar
    18     2     3    1
    19     3     4    1
    20     4    16    1
    21    16    17   ar
    22    17    18   ar
    23    18    19   ar
    24    19    20   ar
    25     4     5    2
    26     5     6    1
    27     6     8    1
    28     8     9   ar
    29     9    10   ar
    30    10    11   ar
    31    11    12    1
    32    11    13   ar
    33    13    14   ar
    34    14    15    1
    35     6     1    1
    36    14     8   ar
    37    33    27    1
    38    20    16   ar
    39     3     7    1
@<TRIPOS>MOLECULE
*****
 36 39 0 0 0
SMALL
GASTEIGER

@<TRIPOS>ATOM
      1 C         142.2426  143.2353  160.4430 C.2     1  UNL1        0.1397
      2 C         143.1681  143.1831  159.2637 C.2     1  UNL1        0.1355
      3 N         142.8125  143.9065  157.9987 N.pl3   1  UNL1       -0.1998
      4 C         141.5315  144.6821  157.9130 C.2     1  UNL1        0.3442
      5 N         140.6061  144.7343  159.0923 N.2     1  UNL1       -0.0580
      6 C         140.9616  144.0109  160.3573 C.3     1  UNL1        0.2692
      7 H         143.4199  143.8722  157.2247 H       1  UNL1        0.2983
      8 C         140.0361  144.0631  161.5366 C.ar    1  UNL1        0.0371
      9 C         140.2893  145.0405  162.6460 C.ar    1  UNL1        0.0030
     10 C         139.3638  145.0927  163.8252 C.ar    1  UNL1        0.0295
     11 C         138.1851  144.1676  163.8952 C.ar    1  UNL1        0.1406
     12 F         137.2597  144.2199  165.0745 F       1  UNL1       -0.2042
     13 C         137.9319  143.1902  162.7859 C.ar    1  UNL1        0.0362
     14 C         138.8575  143.1380  161.6066 C.ar    1  UNL1        0.0372
     15 BR        138.6043  142.1606  160.4972 Br      1  UNL1       -0.0491
     16 C         141.1760  145.4055  156.6480 C.ar    1  UNL1        0.1931
     17 N         140.1465  146.4879  156.5108 N.ar    1  UNL1       -0.2297
     18 C         140.1217  146.9249  155.0761 C.ar    1  UNL1        0.1067
     19 C         141.1359  146.1127  154.3265 C.ar    1  UNL1        0.0577
     20 S         141.7874  145.1736  155.2980 S.2     1  UNL1       -0.0586
     21 C         142.5982  142.5118  161.7080 C.2     1  UNL1        0.3447
     22 O         142.2144  141.0723  161.8819 O.2     1  UNL1       -0.2450
     23 O         143.3375  143.2280  162.7991 O.3     1  UNL1       -0.4455
     24 C         145.5155  141.8185  162.9406 C.3     1  UNL1        0.0513
     25 C         144.3609  142.4969  163.6165 C.3     1  UNL1        0.2089
     26 C         144.4492  142.4074  159.3494 C.3     1  UNL1        0.1407
     27 N         145.1684  142.0064  158.0956 N.3     1  UNL1       -0.2585
     28 C         146.3629  142.7872  157.6338 C.3     1  UNL1        0.1052
     29 C         147.0822  142.3862  156.3800 C.3     1  UNL1        0.1594
     30 O         146.6068  141.2043  155.5881 O.3     1  UNL1       -0.3530
     31 C         145.4123  140.4234  156.0500 C.3     1  UNL1        0.1352
     32 C         144.9369  139.2415  155.2581 C.3     1  UNL1        0.0339
     33 C         144.6931  140.8244  157.3037 C.3     1  UNL1        0.1221
     34 C         143.4985  140.0436  157.7655 C.2     1  UNL1        0.0673
     35 O         143.6734  138.9001  158.7205 O.co2   1  UNL1       -0.5477
     36 O         142.1291  140.4061  157.2724 O.co2   1  UNL1       -0.5477
@<TRIPOS>UNITY_ATOM_ATTR
35 1
charge -1
@<TRIPOS>BOND
     1    24    25    1
     2    25    23    1
     3    23    21    1
     4    21    22    2
     5    21     1    1
     6     1     2    2
     7     2    26    1
     8    26    27    1
     9    27    28    1
    10    28    29    1
    11    29    30    1
    12    30    31    1
    13    31    32    1
    14    31    33    1
    15    33    34    1
    16    34    35   ar
    17    34    36   ar
    18     2     3    1
    19     3     4    1
    20     4    16    1
    21    16    17   ar
    22    17    18   ar
    23    18    19   ar
    24    19    20   ar
    25     4     5    2
    26     5     6    1
    27     6     8    1
    28     8     9   ar
    29     9    10   ar
    30    10    11   ar
    31    11    12    1
    32    11    13   ar
    33    13    14   ar
    34    14    15    1
    35     6     1    1
    36    14     8   ar
    37    33    27    1
    38    20    16   ar
    39     3     7    1
@<TRIPOS>MOLECULE
*****
 36 39 0 0 0
SMALL
GASTEIGER

@<TRIPOS>ATOM
      1 C         139.7177  141.2037  160.7875 C.2     1  UNL1        0.1397
      2 C         139.8621  140.5096  159.4657 C.2     1  UNL1        0.1355
      3 N         139.4184  141.1939  158.2068 N.pl3   1  UNL1       -0.1998
      4 C         138.8303  142.5723  158.2697 C.2     1  UNL1        0.3442
      5 N         138.6858  143.2664  159.5916 N.2     1  UNL1       -0.0580
      6 C         139.1295  142.5821  160.8505 C.3     1  UNL1        0.2692
      7 H         139.5133  140.7383  157.3392 H       1  UNL1        0.2983
      8 C         138.9850  143.2763  162.1724 C.ar    1  UNL1        0.0371
      9 C         137.7386  143.0888  162.9856 C.ar    1  UNL1        0.0030
     10 C         137.5941  143.7830  164.3074 C.ar    1  UNL1        0.0295
     11 C         138.6960  144.6646  164.8161 C.ar    1  UNL1        0.1406
     12 F         138.5515  145.3587  166.1379 F       1  UNL1       -0.2042
     13 C         139.9424  144.8520  164.0028 C.ar    1  UNL1        0.0362
     14 C         140.0869  144.1578  162.6809 C.ar    1  UNL1        0.0372
     15 BR        141.3333  144.3452  161.8677 Br      1  UNL1       -0.0491
     16 C         138.3866  143.2566  157.0108 C.ar    1  UNL1        0.1931
     17 N         137.0716  143.0596  156.3166 N.ar    1  UNL1       -0.2297
     18 C         137.0522  143.9393  155.1018 C.ar    1  UNL1        0.1067
     19 C         138.3553  144.6800  155.0452 C.ar    1  UNL1        0.0577
     20 S         139.1800  144.2581  156.2250 S.2     1  UNL1       -0.0586
     21 C         140.1614  140.5194  162.0465 C.2     1  UNL1        0.3447
     22 O         141.5704  140.6848  162.5334 O.2     1  UNL1       -0.2450
     23 O         139.1960  139.6696  162.8184 O.3     1  UNL1       -0.4455
     24 C         138.2249  140.1103  165.1876 C.3     1  UNL1        0.0513
     25 C         139.3138  139.5672  164.3103 C.3     1  UNL1        0.2089
     26 C         140.4503  139.1311  159.4027 C.3     1  UNL1        0.1407
     27 N         140.8605  138.5503  158.0820 N.3     1  UNL1       -0.2585
     28 C         139.9148  137.6648  157.3259 C.3     1  UNL1        0.1052
     29 C         140.3251  137.0840  156.0051 C.3     1  UNL1        0.1594
     30 O         141.6809  137.3887  155.4404 O.3     1  UNL1       -0.3530
     31 C         142.6265  138.2742  156.1965 C.3     1  UNL1        0.1352
     32 C         143.9823  138.5790  155.6318 C.3     1  UNL1        0.0339
     33 C         142.2163  138.8550  157.5172 C.3     1  UNL1        0.1221
     34 C         143.1620  139.7405  158.2733 C.2     1  UNL1        0.0673
     35 O         143.2235  141.2075  157.9662 O.co2   1  UNL1       -0.5477
     36 O         144.0461  139.1592  159.3364 O.co2   1  UNL1       -0.5477
@<TRIPOS>UNITY_ATOM_ATTR
35 1
charge -1
@<TRIPOS>BOND
     1    24    25    1
     2    25    23    1
     3    23    21    1
     4    21    22    2
     5    21     1    1
     6     1     2    2
     7     2    26    1
     8    26    27    1
     9    27    28    1
    10    28    29    1
    11    29    30    1
    12    30    31    1
    13    31    32    1
    14    31    33    1
    15    33    34    1
    16    34    35   ar
    17    34    36   ar
    18     2     3    1
    19     3     4    1
    20     4    16    1
    21    16    17   ar
    22    17    18   ar
    23    18    19   ar
    24    19    20   ar
    25     4     5    2
    26     5     6    1
    27     6     8    1
    28     8     9   ar
    29     9    10   ar
    30    10    11   ar
    31    11    12    1
    32    11    13   ar
    33    13    14   ar
    34    14    15    1
    35     6     1    1
    36    14     8   ar
    37    33    27    1
    38    20    16   ar
    39     3     7    1
