@<TRIPOS>MOLECULE
*****
 32 35 0 0 0
SMALL
GASTEIGER

@<TRIPOS>ATOM
      1 C         140.5727  142.0734  163.5271 C.3     1  UNL1        0.1046
      2 C         140.3194  141.3818  167.9664 C.ar    1  UNL1        0.0536
      3 C         140.1972  140.2253  167.0191 C.ar    1  UNL1        0.0042
      4 C         140.2817  140.4558  165.5393 C.ar    1  UNL1       -0.0025
      5 C         140.4882  141.8428  165.0069 C.ar    1  UNL1       -0.0036
      6 C         140.6104  142.9993  165.9543 C.ar    1  UNL1       -0.0025
      7 C         140.5259  142.7688  167.4340 C.ar    1  UNL1        0.0042
      8 N         141.4889  140.9820  170.2516 N.am    1  UNL1       -0.2743
      9 C         141.4045  140.7514  171.7314 C.3     1  UNL1        0.1152
     10 C         140.2349  141.1513  169.4462 C.2     1  UNL1        0.2491
     11 O         138.8965  141.0902  170.1206 O.2     1  UNL1       -0.2699
     12 C         143.6592  142.2877  169.6727 C.3     1  UNL1        0.0233
     13 C         142.8274  141.0431  169.5773 C.3     1  UNL1        0.0938
     14 C         140.1485  143.3903  162.9478 C.ar    1  UNL1        0.0156
     15 C         141.1811  144.3611  162.4566 C.ar    1  UNL1        0.0005
     16 C         140.7569  145.6781  161.8773 C.ar    1  UNL1        0.0204
     17 C         139.3000  146.0243  161.7891 C.ar    1  UNL1        0.0989
     18 N         138.2674  145.0535  162.2803 N.ar    1  UNL1       -0.2426
     19 C         138.6916  143.7365  162.8597 C.ar    1  UNL1        0.0962
     20 N         141.0814  140.9869  162.6267 N.3     1  UNL1       -0.2643
     21 C         140.1321  140.2532  161.7264 C.3     1  UNL1        0.0901
     22 C         140.6409  139.1667  160.8259 C.3     1  UNL1        0.0900
     23 N         142.0988  138.8140  160.8257 N.3     1  UNL1       -0.2652
     24 C         143.0480  139.5478  161.7260 C.3     1  UNL1        0.0900
     25 C         142.5394  140.6342  162.6265 C.3     1  UNL1        0.0901
     26 C         142.6075  137.7275  159.9252 C.3     1  UNL1        0.1187
     27 C         142.8891  138.0206  158.4813 C.ar    1  UNL1        0.0752
     28 C         142.5774  136.9940  157.4330 C.ar    1  UNL1        0.0161
     29 C         142.8590  137.2871  155.9891 C.ar    1  UNL1        0.0028
     30 C         143.4523  138.6069  155.5936 C.ar    1  UNL1        0.0207
     31 C         143.7639  139.6334  156.6419 C.ar    1  UNL1        0.0985
     32 N         143.4823  139.3403  158.0858 N.ar    1  UNL1       -0.2468
@<TRIPOS>BOND
     1    12    13    1
     2    13     8    1
     3     8     9    1
     4     8    10   am
     5    10    11    2
     6    10     2    1
     7     2     3   ar
     8     3     4   ar
     9     4     5   ar
    10     5     1    1
    11     1    14    1
    12    14    15   ar
    13    15    16   ar
    14    16    17   ar
    15    17    18   ar
    16    18    19   ar
    17     1    20    1
    18    20    21    1
    19    21    22    1
    20    22    23    1
    21    23    26    1
    22    26    27    1
    23    27    28   ar
    24    28    29   ar
    25    29    30   ar
    26    30    31   ar
    27    31    32   ar
    28    23    24    1
    29    24    25    1
    30     5     6   ar
    31     6     7   ar
    32     7     2   ar
    33    19    14   ar
    34    25    20    1
    35    32    27   ar
@<TRIPOS>MOLECULE
*****
 32 35 0 0 0
SMALL
GASTEIGER

@<TRIPOS>ATOM
      1 C         141.2948  141.7447  163.1505 C.3     1  UNL1        0.1046
      2 C         141.8412  140.8346  167.5235 C.ar    1  UNL1        0.0536
      3 C         140.8408  140.0619  166.7159 C.ar    1  UNL1        0.0042
      4 C         140.6587  140.3653  165.2582 C.ar    1  UNL1       -0.0025
      5 C         141.4769  141.4413  164.6081 C.ar    1  UNL1       -0.0036
      6 C         142.4772  142.2140  165.4157 C.ar    1  UNL1       -0.0025
      7 C         142.6594  141.9106  166.8734 C.ar    1  UNL1        0.0042
      8 N         141.1911  141.2444  170.0053 N.am    1  UNL1       -0.2743
      9 C         141.3733  140.9411  171.4630 C.3     1  UNL1        0.1152
     10 C         142.0233  140.5313  168.9812 C.2     1  UNL1        0.2491
     11 O         143.0376  139.5148  169.4147 O.2     1  UNL1       -0.2699
     12 C         140.5035  143.7233  169.6413 C.3     1  UNL1        0.0233
     13 C         140.1768  142.2609  169.5718 C.3     1  UNL1        0.0938
     14 C         140.7518  143.0761  162.7236 C.ar    1  UNL1        0.0156
     15 C         139.4901  143.6041  163.3398 C.ar    1  UNL1        0.0005
     16 C         138.9471  144.9356  162.9130 C.ar    1  UNL1        0.0204
     17 C         139.6657  145.7392  161.8699 C.ar    1  UNL1        0.0989
     18 N         140.9273  145.2113  161.2538 N.ar    1  UNL1       -0.2426
     19 C         141.4703  143.8797  161.6806 C.ar    1  UNL1        0.0962
     20 N         141.6557  140.7165  162.1196 N.3     1  UNL1       -0.2643
     21 C         143.0890  140.5253  161.7208 C.3     1  UNL1        0.0901
     22 C         143.4498  139.4971  160.6899 C.3     1  UNL1        0.0900
     23 N         142.3774  138.6602  160.0579 N.3     1  UNL1       -0.2652
     24 C         140.9441  138.8514  160.4568 C.3     1  UNL1        0.0900
     25 C         140.5832  139.8795  161.4876 C.3     1  UNL1        0.0901
     26 C         142.7382  137.6320  159.0270 C.3     1  UNL1        0.1187
     27 C         142.5830  137.9457  157.5685 C.ar    1  UNL1        0.0752
     28 C         141.2998  137.6195  156.8635 C.ar    1  UNL1        0.0161
     29 C         141.1446  137.9333  155.4050 C.ar    1  UNL1        0.0028
     30 C         142.2726  138.5733  154.6513 C.ar    1  UNL1        0.0207
     31 C         143.5558  138.8995  155.3562 C.ar    1  UNL1        0.0985
     32 N         143.7110  138.5857  156.8148 N.ar    1  UNL1       -0.2468
@<TRIPOS>BOND
     1    12    13    1
     2    13     8    1
     3     8     9    1
     4     8    10   am
     5    10    11    2
     6    10     2    1
     7     2     3   ar
     8     3     4   ar
     9     4     5   ar
    10     5     1    1
    11     1    14    1
    12    14    15   ar
    13    15    16   ar
    14    16    17   ar
    15    17    18   ar
    16    18    19   ar
    17     1    20    1
    18    20    21    1
    19    21    22    1
    20    22    23    1
    21    23    26    1
    22    26    27    1
    23    27    28   ar
    24    28    29   ar
    25    29    30   ar
    26    30    31   ar
    27    31    32   ar
    28    23    24    1
    29    24    25    1
    30     5     6   ar
    31     6     7   ar
    32     7     2   ar
    33    19    14   ar
    34    25    20    1
    35    32    27   ar
@<TRIPOS>MOLECULE
*****
 32 35 0 0 0
SMALL
GASTEIGER

@<TRIPOS>ATOM
      1 C         140.7192  141.4521  162.2146 C.3     1  UNL1        0.1046
      2 C         142.1591  139.7777  166.1354 C.ar    1  UNL1        0.0536
      3 C         141.0276  139.1149  165.4071 C.ar    1  UNL1        0.0042
      4 C         140.5477  139.6731  164.1002 C.ar    1  UNL1       -0.0025
      5 C         141.1992  140.8940  163.5215 C.ar    1  UNL1       -0.0036
      6 C         142.3307  141.5567  164.2498 C.ar    1  UNL1       -0.0025
      7 C         142.8106  140.9986  165.5568 C.ar    1  UNL1        0.0042
      8 N         142.0093  139.6703  168.7270 N.am    1  UNL1       -0.2743
      9 C         142.4892  139.1121  170.0339 C.3     1  UNL1        0.1152
     10 C         142.6390  139.2195  167.4424 C.2     1  UNL1        0.2491
     11 O         143.7488  138.2106  167.4648 O.2     1  UNL1       -0.2699
     12 C         139.4722  140.2263  168.7918 C.3     1  UNL1        0.0233
     13 C         140.8995  140.6792  168.7046 C.3     1  UNL1        0.0938
     14 C         140.2876  142.8858  162.1246 C.ar    1  UNL1        0.0156
     15 C         141.2559  143.9329  161.6598 C.ar    1  UNL1        0.0005
     16 C         140.8243  145.3666  161.5698 C.ar    1  UNL1        0.0204
     17 C         139.4243  145.7533  161.9446 C.ar    1  UNL1        0.0989
     18 N         138.4560  144.7063  162.4094 N.ar    1  UNL1       -0.2426
     19 C         138.8876  143.2725  162.4994 C.ar    1  UNL1        0.0962
     20 N         140.6709  140.5766  160.9976 N.3     1  UNL1       -0.2643
     21 C         139.3502  140.2179  160.3837 C.3     1  UNL1        0.0901
     22 C         139.3019  139.3423  159.1666 C.3     1  UNL1        0.0900
     23 N         140.5744  138.8254  158.5636 N.3     1  UNL1       -0.2652
     24 C         141.8951  139.1841  159.1776 C.3     1  UNL1        0.0900
     25 C         141.9434  140.0596  160.3946 C.3     1  UNL1        0.0901
     26 C         140.5261  137.9498  157.3466 C.3     1  UNL1        0.1187
     27 C         141.7983  137.5467  156.6618 C.ar    1  UNL1        0.0752
     28 C         142.3625  136.1733  156.8755 C.ar    1  UNL1        0.0161
     29 C         143.6347  135.7702  156.1907 C.ar    1  UNL1        0.0028
     30 C         144.3428  136.7405  155.2922 C.ar    1  UNL1        0.0207
     31 C         143.7786  138.1138  155.0785 C.ar    1  UNL1        0.0985
     32 N         142.5064  138.5169  155.7634 N.ar    1  UNL1       -0.2468
@<TRIPOS>BOND
     1    12    13    1
     2    13     8    1
     3     8     9    1
     4     8    10   am
     5    10    11    2
     6    10     2    1
     7     2     3   ar
     8     3     4   ar
     9     4     5   ar
    10     5     1    1
    11     1    14    1
    12    14    15   ar
    13    15    16   ar
    14    16    17   ar
    15    17    18   ar
    16    18    19   ar
    17     1    20    1
    18    20    21    1
    19    21    22    1
    20    22    23    1
    21    23    26    1
    22    26    27    1
    23    27    28   ar
    24    28    29   ar
    25    29    30   ar
    26    30    31   ar
    27    31    32   ar
    28    23    24    1
    29    24    25    1
    30     5     6   ar
    31     6     7   ar
    32     7     2   ar
    33    19    14   ar
    34    25    20    1
    35    32    27   ar
@<TRIPOS>MOLECULE
*****
 32 35 0 0 0
SMALL
GASTEIGER

@<TRIPOS>ATOM
      1 C         141.2706  140.6125  162.7904 C.3     1  UNL1        0.1046
      2 C         142.1826  141.4380  167.1190 C.ar    1  UNL1        0.0536
      3 C         142.8851  140.3220  166.4041 C.ar    1  UNL1        0.0042
      4 C         142.5811  140.0468  164.9612 C.ar    1  UNL1       -0.0025
      5 C         141.5746  140.8876  164.2332 C.ar    1  UNL1       -0.0036
      6 C         140.8722  142.0036  164.9481 C.ar    1  UNL1       -0.0025
      7 C         141.1762  142.2788  166.3910 C.ar    1  UNL1        0.0042
      8 N         141.7360  140.9867  169.6383 N.am    1  UNL1       -0.2743
      9 C         142.0400  141.2618  171.0811 C.3     1  UNL1        0.1152
     10 C         142.4866  141.7132  168.5618 C.2     1  UNL1        0.2491
     11 O         143.5413  142.7148  168.9283 O.2     1  UNL1       -0.2699
     12 C         139.2371  140.3897  169.2518 C.3     1  UNL1        0.0233
     13 C         140.6813  139.9849  169.2718 C.3     1  UNL1        0.0938
     14 C         140.0228  139.8693  162.4153 C.ar    1  UNL1        0.0156
     15 C         139.8084  138.4680  162.9057 C.ar    1  UNL1        0.0005
     16 C         138.5606  137.7249  162.5306 C.ar    1  UNL1        0.0204
     17 C         137.5272  138.3830  161.6652 C.ar    1  UNL1        0.0989
     18 N         137.7416  139.7842  161.1748 N.ar    1  UNL1       -0.2426
     19 C         138.9894  140.5274  161.5499 C.ar    1  UNL1        0.0962
     20 N         142.2144  141.0804  161.7226 N.3     1  UNL1       -0.2643
     21 C         142.4347  142.5484  161.5071 C.3     1  UNL1        0.0901
     22 C         143.3786  143.0163  160.4393 C.3     1  UNL1        0.0900
     23 N         144.1020  142.0163  159.5869 N.3     1  UNL1       -0.2652
     24 C         143.8816  140.5483  159.8024 C.3     1  UNL1        0.0900
     25 C         142.9379  140.0803  160.8702 C.3     1  UNL1        0.0901
     26 C         145.0459  142.4842  158.5191 C.3     1  UNL1        0.1187
     27 C         144.8930  141.9865  157.1123 C.ar    1  UNL1        0.0752
     28 C         146.1010  141.5583  156.3328 C.ar    1  UNL1        0.0161
     29 C         145.9481  141.0606  154.9261 C.ar    1  UNL1        0.0028
     30 C         144.5872  140.9910  154.2989 C.ar    1  UNL1        0.0207
     31 C         143.3794  141.4192  155.0784 C.ar    1  UNL1        0.0985
     32 N         143.5322  141.9169  156.4851 N.ar    1  UNL1       -0.2468
@<TRIPOS>BOND
     1    12    13    1
     2    13     8    1
     3     8     9    1
     4     8    10   am
     5    10    11    2
     6    10     2    1
     7     2     3   ar
     8     3     4   ar
     9     4     5   ar
    10     5     1    1
    11     1    14    1
    12    14    15   ar
    13    15    16   ar
    14    16    17   ar
    15    17    18   ar
    16    18    19   ar
    17     1    20    1
    18    20    21    1
    19    21    22    1
    20    22    23    1
    21    23    26    1
    22    26    27    1
    23    27    28   ar
    24    28    29   ar
    25    29    30   ar
    26    30    31   ar
    27    31    32   ar
    28    23    24    1
    29    24    25    1
    30     5     6   ar
    31     6     7   ar
    32     7     2   ar
    33    19    14   ar
    34    25    20    1
    35    32    27   ar
@<TRIPOS>MOLECULE
*****
 32 35 0 0 0
SMALL
GASTEIGER

@<TRIPOS>ATOM
      1 C         141.5949  141.9134  162.0758 C.3     1  UNL1        0.1046
      2 C         142.5979  139.8076  165.9241 C.ar    1  UNL1        0.0536
      3 C         143.3063  141.0779  165.5576 C.ar    1  UNL1        0.0042
      4 C         142.9720  141.7799  164.2748 C.ar    1  UNL1       -0.0025
      5 C         141.9292  141.2115  163.3586 C.ar    1  UNL1       -0.0036
      6 C         141.2208  139.9412  163.7251 C.ar    1  UNL1       -0.0025
      7 C         141.5552  139.2393  165.0079 C.ar    1  UNL1        0.0042
      8 N         142.2358  139.4933  168.4775 N.am    1  UNL1       -0.2743
      9 C         142.5701  138.7913  169.7603 C.3     1  UNL1        0.1152
     10 C         142.9323  139.1057  167.2069 C.2     1  UNL1        0.2491
     11 O         143.9631  138.0161  167.2190 O.2     1  UNL1       -0.2699
     12 C         139.7495  140.2372  168.3539 C.3     1  UNL1        0.0233
     13 C         141.2048  140.5829  168.4655 C.3     1  UNL1        0.0938
     14 C         140.8653  143.2237  162.1059 C.ar    1  UNL1        0.0156
     15 C         139.6750  143.3989  163.0018 C.ar    1  UNL1        0.0005
     16 C         138.9454  144.7092  163.0319 C.ar    1  UNL1        0.0204
     17 C         139.4061  145.8442  162.1662 C.ar    1  UNL1        0.0989
     18 N         140.5964  145.6690  161.2704 N.ar    1  UNL1       -0.2426
     19 C         141.3260  144.3587  161.2402 C.ar    1  UNL1        0.0962
     20 N         141.9901  141.3052  160.7629 N.3     1  UNL1       -0.2643
     21 C         143.4184  140.9199  160.5145 C.3     1  UNL1        0.0901
     22 C         143.8136  140.3116  159.2015 C.3     1  UNL1        0.0900
     23 N         142.7806  140.0885  158.1371 N.3     1  UNL1       -0.2652
     24 C         141.3523  140.4738  158.3855 C.3     1  UNL1        0.0900
     25 C         140.9571  141.0821  159.6984 C.3     1  UNL1        0.0901
     26 C         143.1758  139.4802  156.8241 C.3     1  UNL1        0.1187
     27 C         142.8120  138.0578  156.5168 C.ar    1  UNL1        0.0752
     28 C         141.3778  137.6836  156.2858 C.ar    1  UNL1        0.0161
     29 C         141.0140  136.2612  155.9785 C.ar    1  UNL1        0.0028
     30 C         142.0844  135.2130  155.9022 C.ar    1  UNL1        0.0207
     31 C         143.5184  135.5873  156.1331 C.ar    1  UNL1        0.0985
     32 N         143.8822  137.0096  156.4404 N.ar    1  UNL1       -0.2468
@<TRIPOS>BOND
     1    12    13    1
     2    13     8    1
     3     8     9    1
     4     8    10   am
     5    10    11    2
     6    10     2    1
     7     2     3   ar
     8     3     4   ar
     9     4     5   ar
    10     5     1    1
    11     1    14    1
    12    14    15   ar
    13    15    16   ar
    14    16    17   ar
    15    17    18   ar
    16    18    19   ar
    17     1    20    1
    18    20    21    1
    19    21    22    1
    20    22    23    1
    21    23    26    1
    22    26    27    1
    23    27    28   ar
    24    28    29   ar
    25    29    30   ar
    26    30    31   ar
    27    31    32   ar
    28    23    24    1
    29    24    25    1
    30     5     6   ar
    31     6     7   ar
    32     7     2   ar
    33    19    14   ar
    34    25    20    1
    35    32    27   ar
@<TRIPOS>MOLECULE
*****
 32 35 0 0 0
SMALL
GASTEIGER

@<TRIPOS>ATOM
      1 C         141.9607  138.8477  157.6184 C.3     1  UNL1        0.1046
      2 C         141.9289  138.1688  162.0667 C.ar    1  UNL1        0.0536
      3 C         143.0147  137.5680  161.2241 C.ar    1  UNL1        0.0042
      4 C         143.0253  137.7943  159.7413 C.ar    1  UNL1       -0.0025
      5 C         141.9501  138.6214  159.1012 C.ar    1  UNL1       -0.0036
      6 C         140.8643  139.2222  159.9438 C.ar    1  UNL1       -0.0025
      7 C         140.8537  138.9959  161.4266 C.ar    1  UNL1        0.0042
      8 N         142.7278  138.8285  164.4493 N.am    1  UNL1       -0.2743
      9 C         142.7173  138.6021  165.9320 C.3     1  UNL1        0.1152
     10 C         141.9183  137.9425  163.5495 C.2     1  UNL1        0.2491
     11 O         141.0981  136.8301  164.1326 O.2     1  UNL1       -0.2699
     12 C         145.0295  139.9811  164.0976 C.3     1  UNL1        0.0233
     13 C         143.5481  139.9409  163.8662 C.3     1  UNL1        0.0938
     14 C         143.2267  139.2688  156.9330 C.ar    1  UNL1        0.0156
     15 C         143.8768  140.5718  157.2929 C.ar    1  UNL1        0.0005
     16 C         145.1428  140.9929  156.6075 C.ar    1  UNL1        0.0204
     17 C         145.7589  140.1109  155.5622 C.ar    1  UNL1        0.0989
     18 N         145.1088  138.8079  155.2023 N.ar    1  UNL1       -0.2426
     19 C         143.8427  138.3868  155.8877 C.ar    1  UNL1        0.0962
     20 N         140.7052  138.6530  156.8210 N.3     1  UNL1       -0.2643
     21 C         140.2892  137.2741  156.4019 C.3     1  UNL1        0.0901
     22 C         139.0336  137.0795  155.6044 C.3     1  UNL1        0.0900
     23 N         138.1942  138.2636  155.2261 N.3     1  UNL1       -0.2652
     24 C         138.6103  139.6425  155.6453 C.3     1  UNL1        0.0900
     25 C         139.8657  139.8372  156.4426 C.3     1  UNL1        0.0901
     26 C         136.9387  138.0689  154.4287 C.3     1  UNL1        0.1187
     27 C         135.8468  139.0957  154.4864 C.ar    1  UNL1        0.0752
     28 C         135.7231  140.1210  153.3984 C.ar    1  UNL1        0.0161
     29 C         134.6312  141.1478  153.4562 C.ar    1  UNL1        0.0028
     30 C         133.6629  141.1494  154.6019 C.ar    1  UNL1        0.0207
     31 C         133.7866  140.1242  155.6898 C.ar    1  UNL1        0.0985
     32 N         134.8786  139.0973  155.6321 N.ar    1  UNL1       -0.2468
@<TRIPOS>BOND
     1    12    13    1
     2    13     8    1
     3     8     9    1
     4     8    10   am
     5    10    11    2
     6    10     2    1
     7     2     3   ar
     8     3     4   ar
     9     4     5   ar
    10     5     1    1
    11     1    14    1
    12    14    15   ar
    13    15    16   ar
    14    16    17   ar
    15    17    18   ar
    16    18    19   ar
    17     1    20    1
    18    20    21    1
    19    21    22    1
    20    22    23    1
    21    23    26    1
    22    26    27    1
    23    27    28   ar
    24    28    29   ar
    25    29    30   ar
    26    30    31   ar
    27    31    32   ar
    28    23    24    1
    29    24    25    1
    30     5     6   ar
    31     6     7   ar
    32     7     2   ar
    33    19    14   ar
    34    25    20    1
    35    32    27   ar
@<TRIPOS>MOLECULE
*****
 32 35 0 0 0
SMALL
GASTEIGER

@<TRIPOS>ATOM
      1 C         142.0489  138.8203  157.1841 C.3     1  UNL1        0.1046
      2 C         142.4671  134.8310  155.1444 C.ar    1  UNL1        0.0536
      3 C         143.6893  135.6310  155.4848 C.ar    1  UNL1        0.0042
      4 C         143.5500  136.9608  156.1647 C.ar    1  UNL1       -0.0025
      5 C         142.1883  137.4905  156.5042 C.ar    1  UNL1       -0.0036
      6 C         140.9661  136.6905  156.1637 C.ar    1  UNL1       -0.0025
      7 C         141.1054  135.3607  155.4838 C.ar    1  UNL1        0.0042
      8 N         142.9480  132.2807  155.2668 N.am    1  UNL1       -0.2743
      9 C         143.0874  130.9510  154.5869 C.3     1  UNL1        0.1152
     10 C         142.6065  133.5012  154.4644 C.2     1  UNL1        0.2491
     11 O         142.4043  133.3919  152.9822 O.2     1  UNL1       -0.2699
     12 C         144.5383  132.4293  157.3159 C.3     1  UNL1        0.0233
     13 C         143.1501  132.3900  156.7491 C.3     1  UNL1        0.0938
     14 C         142.9994  139.9335  156.8564 C.ar    1  UNL1        0.0156
     15 C         142.9735  140.5659  155.4964 C.ar    1  UNL1        0.0005
     16 C         143.9239  141.6791  155.1688 C.ar    1  UNL1        0.0204
     17 C         144.9003  142.1599  156.2010 C.ar    1  UNL1        0.0989
     18 N         144.9262  141.5275  157.5609 N.ar    1  UNL1       -0.2426
     19 C         143.9758  140.4143  157.8886 C.ar    1  UNL1        0.0962
     20 N         140.9591  139.0369  158.1917 N.3     1  UNL1       -0.2643
     21 C         141.0752  138.4386  159.5623 C.3     1  UNL1        0.0901
     22 C         139.9852  138.6552  160.5700 C.3     1  UNL1        0.0900
     23 N         138.7794  139.4701  160.2069 N.3     1  UNL1       -0.2652
     24 C         138.6633  140.0683  158.8363 C.3     1  UNL1        0.0900
     25 C         139.7531  139.8517  157.8287 C.3     1  UNL1        0.0901
     26 C         137.6894  139.6867  161.2146 C.3     1  UNL1        0.1187
     27 C         137.7836  140.8237  162.1884 C.ar    1  UNL1        0.0752
     28 C         137.9711  140.5454  163.6505 C.ar    1  UNL1        0.0161
     29 C         138.0653  141.6823  164.6243 C.ar    1  UNL1        0.0028
     30 C         137.9718  143.0977  164.1362 C.ar    1  UNL1        0.0207
     31 C         137.7843  143.3759  162.6742 C.ar    1  UNL1        0.0985
     32 N         137.6901  142.2389  161.7004 N.ar    1  UNL1       -0.2468
@<TRIPOS>BOND
     1    12    13    1
     2    13     8    1
     3     8     9    1
     4     8    10   am
     5    10    11    2
     6    10     2    1
     7     2     3   ar
     8     3     4   ar
     9     4     5   ar
    10     5     1    1
    11     1    14    1
    12    14    15   ar
    13    15    16   ar
    14    16    17   ar
    15    17    18   ar
    16    18    19   ar
    17     1    20    1
    18    20    21    1
    19    21    22    1
    20    22    23    1
    21    23    26    1
    22    26    27    1
    23    27    28   ar
    24    28    29   ar
    25    29    30   ar
    26    30    31   ar
    27    31    32   ar
    28    23    24    1
    29    24    25    1
    30     5     6   ar
    31     6     7   ar
    32     7     2   ar
    33    19    14   ar
    34    25    20    1
    35    32    27   ar
@<TRIPOS>MOLECULE
*****
 32 35 0 0 0
SMALL
GASTEIGER

@<TRIPOS>ATOM
      1 C         139.5664  144.3528  156.5990 C.3     1  UNL1        0.1046
      2 C         141.6615  144.1292  160.5753 C.ar    1  UNL1        0.0536
      3 C         141.7318  142.9713  159.6243 C.ar    1  UNL1        0.0042
      4 C         141.0334  143.0459  158.2989 C.ar    1  UNL1       -0.0025
      5 C         140.2647  144.2782  157.9244 C.ar    1  UNL1       -0.0036
      6 C         140.1944  145.4361  158.8754 C.ar    1  UNL1       -0.0025
      7 C         140.8928  145.3616  160.2008 C.ar    1  UNL1        0.0042
      8 N         141.6081  143.6116  163.1207 N.am    1  UNL1       -0.2743
      9 C         142.3064  143.5370  164.4461 C.3     1  UNL1        0.1152
     10 C         142.3599  144.0547  161.9007 C.2     1  UNL1        0.2491
     11 O         143.8100  144.4233  162.0061 O.2     1  UNL1       -0.2699
     12 C         139.1663  143.8145  163.9849 C.3     1  UNL1        0.0233
     13 C         140.1578  143.2429  163.0153 C.3     1  UNL1        0.0938
     14 C         139.8215  145.5112  155.6809 C.ar    1  UNL1        0.0156
     15 C         138.9248  146.7130  155.7227 C.ar    1  UNL1        0.0005
     16 C         139.1799  147.8714  154.8046 C.ar    1  UNL1        0.0204
     17 C         140.3318  147.8281  153.8447 C.ar    1  UNL1        0.0989
     18 N         141.2285  146.6264  153.8029 N.ar    1  UNL1       -0.2426
     19 C         140.9734  145.4679  154.7211 C.ar    1  UNL1        0.0962
     20 N         138.6129  143.2689  156.1917 N.3     1  UNL1       -0.2643
     21 C         137.7396  142.6128  157.2198 C.3     1  UNL1        0.0901
     22 C         136.7861  141.5288  156.8124 C.3     1  UNL1        0.0900
     23 N         136.7058  141.1010  155.3770 N.3     1  UNL1       -0.2652
     24 C         137.5791  141.7571  154.3489 C.3     1  UNL1        0.0900
     25 C         138.5326  142.8410  154.7562 C.3     1  UNL1        0.0901
     26 C         135.7523  140.0171  154.9696 C.3     1  UNL1        0.1187
     27 C         134.3711  139.9749  155.5531 C.ar    1  UNL1        0.0752
     28 C         133.3939  141.0712  155.2472 C.ar    1  UNL1        0.0161
     29 C         132.0127  141.0291  155.8307 C.ar    1  UNL1        0.0028
     30 C         131.6087  139.8907  156.7201 C.ar    1  UNL1        0.0207
     31 C         132.5858  138.7945  157.0259 C.ar    1  UNL1        0.0985
     32 N         133.9670  138.8366  156.4424 N.ar    1  UNL1       -0.2468
@<TRIPOS>BOND
     1    12    13    1
     2    13     8    1
     3     8     9    1
     4     8    10   am
     5    10    11    2
     6    10     2    1
     7     2     3   ar
     8     3     4   ar
     9     4     5   ar
    10     5     1    1
    11     1    14    1
    12    14    15   ar
    13    15    16   ar
    14    16    17   ar
    15    17    18   ar
    16    18    19   ar
    17     1    20    1
    18    20    21    1
    19    21    22    1
    20    22    23    1
    21    23    26    1
    22    26    27    1
    23    27    28   ar
    24    28    29   ar
    25    29    30   ar
    26    30    31   ar
    27    31    32   ar
    28    23    24    1
    29    24    25    1
    30     5     6   ar
    31     6     7   ar
    32     7     2   ar
    33    19    14   ar
    34    25    20    1
    35    32    27   ar
@<TRIPOS>MOLECULE
*****
 32 35 0 0 0
SMALL
GASTEIGER

@<TRIPOS>ATOM
      1 C         142.7473  138.1081  157.8349 C.3     1  UNL1        0.1046
      2 C         141.4946  138.3670  162.1492 C.ar    1  UNL1        0.0536
      3 C         142.8219  137.7688  161.7883 C.ar    1  UNL1        0.0042
      4 C         143.2395  137.6825  160.3501 C.ar    1  UNL1       -0.0025
      5 C         142.3298  138.1944  159.2730 C.ar    1  UNL1       -0.0036
      6 C         141.0025  138.7926  159.6340 C.ar    1  UNL1       -0.0025
      7 C         140.5849  138.8789  161.0721 C.ar    1  UNL1        0.0042
      8 N         141.5686  139.5817  164.4446 N.am    1  UNL1       -0.2743
      9 C         141.1510  139.6680  165.8828 C.3     1  UNL1        0.1152
     10 C         141.0770  138.4533  163.5873 C.2     1  UNL1        0.2491
     11 O         140.1678  137.4113  164.1681 O.2     1  UNL1       -0.2699
     12 C         143.9550  140.5551  164.1158 C.3     1  UNL1        0.0233
     13 C         142.4779  140.6238  163.8638 C.3     1  UNL1        0.0938
     14 C         142.3089  136.9452  156.9951 C.ar    1  UNL1        0.0156
     15 C         143.0907  135.6652  157.0196 C.ar    1  UNL1        0.0005
     16 C         142.6523  134.5023  156.1798 C.ar    1  UNL1        0.0204
     17 C         141.4319  134.6193  155.3154 C.ar    1  UNL1        0.0989
     18 N         140.6501  135.8991  155.2909 N.ar    1  UNL1       -0.2426
     19 C         141.0885  137.0621  156.1307 C.ar    1  UNL1        0.0962
     20 N         143.6034  139.1847  157.2366 N.3     1  UNL1       -0.2643
     21 C         143.9714  140.3895  158.0508 C.3     1  UNL1        0.0901
     22 C         144.8275  141.4662  157.4524 C.3     1  UNL1        0.0900
     23 N         145.3156  141.3380  156.0399 N.3     1  UNL1       -0.2652
     24 C         144.9476  140.1331  155.2256 C.3     1  UNL1        0.0900
     25 C         144.0915  139.0565  155.8240 C.3     1  UNL1        0.0901
     26 C         146.1717  142.4146  155.4415 C.3     1  UNL1        0.1187
     27 C         147.4972  142.0666  154.8316 C.ar    1  UNL1        0.0752
     28 C         148.7032  141.8940  155.7067 C.ar    1  UNL1        0.0161
     29 C         150.0287  141.5460  155.0969 C.ar    1  UNL1        0.0028
     30 C         150.1482  141.3705  153.6119 C.ar    1  UNL1        0.0207
     31 C         148.9422  141.5431  152.7369 C.ar    1  UNL1        0.0985
     32 N         147.6167  141.8911  153.3468 N.ar    1  UNL1       -0.2468
@<TRIPOS>BOND
     1    12    13    1
     2    13     8    1
     3     8     9    1
     4     8    10   am
     5    10    11    2
     6    10     2    1
     7     2     3   ar
     8     3     4   ar
     9     4     5   ar
    10     5     1    1
    11     1    14    1
    12    14    15   ar
    13    15    16   ar
    14    16    17   ar
    15    17    18   ar
    16    18    19   ar
    17     1    20    1
    18    20    21    1
    19    21    22    1
    20    22    23    1
    21    23    26    1
    22    26    27    1
    23    27    28   ar
    24    28    29   ar
    25    29    30   ar
    26    30    31   ar
    27    31    32   ar
    28    23    24    1
    29    24    25    1
    30     5     6   ar
    31     6     7   ar
    32     7     2   ar
    33    19    14   ar
    34    25    20    1
    35    32    27   ar
