@<TRIPOS>MOLECULE
*****
 30 33 0 0 0
SMALL
GASTEIGER

@<TRIPOS>ATOM
      1 O         139.3616  143.3570  164.6151 O.3     1  UNL1       -0.3470
      2 C         140.2145  143.2357  165.8430 C.3     1  UNL1        0.1467
      3 C         145.1398  142.3552  163.0487 C.3     1  UNL1        0.0896
      4 N         143.9452  142.4265  163.9530 N.3     1  UNL1       -0.2715
      5 C         143.9221  141.6379  165.2287 C.3     1  UNL1        0.0725
      6 C         142.7274  141.7093  166.1330 C.3     1  UNL1        0.0238
      7 C         141.5559  142.5692  165.7616 C.3     1  UNL1        0.0489
      8 C         141.5790  143.3578  164.4858 C.3     1  UNL1        0.0238
      9 C         142.7737  143.2864  163.5816 C.3     1  UNL1        0.0725
     10 C         141.0669  142.0121  167.0657 C.ar    1  UNL1       -0.0204
     11 C         140.5306  142.9333  168.1209 C.ar    1  UNL1       -0.0042
     12 C         140.0417  142.3763  169.4249 C.ar    1  UNL1       -0.0003
     13 C         140.0891  140.8978  169.6737 C.ar    1  UNL1       -0.0000
     14 C         140.6254  139.9765  168.6185 C.ar    1  UNL1       -0.0003
     15 C         141.1143  140.5336  167.3144 C.ar    1  UNL1       -0.0042
     16 C         138.4160  142.2525  164.2466 C.3     1  UNL1        0.1874
     17 C         138.8023  140.8231  164.4867 C.ar    1  UNL1        0.0884
     18 C         138.0634  140.0075  165.5060 C.ar    1  UNL1        0.0211
     19 C         138.4498  138.5782  165.7461 C.ar    1  UNL1        0.0739
     20 C         139.5751  137.9644  164.9670 C.ar    1  UNL1        0.0212
     21 C         140.3140  138.7800  163.9477 C.ar    1  UNL1        0.0880
     22 N         139.9276  140.2093  163.7075 N.ar    1  UNL1       -0.2489
     23 C         137.7110  137.7626  166.7654 C.3     1  UNL1        0.4187
     24 F         136.9721  136.9470  167.7846 F       1  UNL1       -0.1659
     25 F         137.4758  138.9978  167.5833 F       1  UNL1       -0.1659
     26 F         137.9461  136.5274  165.9474 F       1  UNL1       -0.1659
     27 C         141.4392  138.1662  163.1685 C.3     1  UNL1        0.1686
     28 F         141.0549  136.7186  163.2526 F       1  UNL1       -0.2340
     29 C         142.6978  138.0550  162.3602 C.3     1  UNL1        0.0415
     30 C         142.2142  139.4005  162.8139 C.3     1  UNL1        0.0415
@<TRIPOS>BOND
     1     3     4    1
     2     4     5    1
     3     5     6    1
     4     6     7    1
     5     7     2    1
     6     2     1    1
     7     1    16    1
     8    16    17    1
     9    17    18   ar
    10    18    19   ar
    11    19    23    1
    12    23    24    1
    13    23    25    1
    14    23    26    1
    15    19    20   ar
    16    20    21   ar
    17    21    27    1
    18    27    28    1
    19    27    29    1
    20    29    30    1
    21    21    22   ar
    22     7    10    1
    23    10    11   ar
    24    11    12   ar
    25    12    13   ar
    26    13    14   ar
    27    14    15   ar
    28     7     8    1
    29     8     9    1
    30     9     4    1
    31    22    17   ar
    32    15    10   ar
    33    30    27    1
@<TRIPOS>MOLECULE
*****
 30 33 0 0 0
SMALL
GASTEIGER

@<TRIPOS>ATOM
      1 O         143.2759  138.7216  164.0781 O.3     1  UNL1       -0.3470
      2 C         143.2962  139.5396  165.3353 C.3     1  UNL1        0.1467
      3 C         144.1602  144.5713  162.7320 C.3     1  UNL1        0.0896
      4 N         143.7954  143.3877  163.5781 N.3     1  UNL1       -0.2715
      5 C         142.9261  143.5693  164.7869 C.3     1  UNL1        0.0725
      6 C         142.5613  142.3856  165.6330 C.3     1  UNL1        0.0238
      7 C         143.0658  141.0204  165.2703 C.3     1  UNL1        0.0489
      8 C         143.9351  140.8388  164.0615 C.3     1  UNL1        0.0238
      9 C         144.2999  142.0225  163.2154 C.3     1  UNL1        0.0725
     10 C         142.2765  140.6877  166.5018 C.ar    1  UNL1       -0.0204
     11 C         142.8323  139.7290  167.5126 C.ar    1  UNL1       -0.0042
     12 C         142.0431  139.3962  168.7440 C.ar    1  UNL1       -0.0003
     13 C         140.6979  140.0223  168.9645 C.ar    1  UNL1       -0.0000
     14 C         140.1420  140.9811  167.9537 C.ar    1  UNL1       -0.0003
     15 C         140.9314  141.3138  166.7223 C.ar    1  UNL1       -0.0042
     16 C         141.9968  138.0896  163.6151 C.3     1  UNL1        0.1874
     17 C         140.6787  138.6700  164.0344 C.ar    1  UNL1        0.0884
     18 C         139.8811  138.0118  165.1210 C.ar    1  UNL1        0.0211
     19 C         138.5631  138.5922  165.5403 C.ar    1  UNL1        0.0739
     20 C         138.0427  139.8308  164.8732 C.ar    1  UNL1        0.0212
     21 C         138.8403  140.4890  163.7867 C.ar    1  UNL1        0.0880
     22 N         140.1584  139.9086  163.3673 N.ar    1  UNL1       -0.2489
     23 C         137.7653  137.9341  166.6269 C.3     1  UNL1        0.4187
     24 F         136.9676  137.2759  167.7133 F       1  UNL1       -0.1659
     25 F         138.0426  136.5918  166.0173 F       1  UNL1       -0.1659
     26 F         137.4880  139.2763  167.2363 F       1  UNL1       -0.1659
     27 C         138.3199  141.7276  163.1196 C.3     1  UNL1        0.1686
     28 F         137.2512  141.1280  162.2544 F       1  UNL1       -0.2340
     29 C         138.1706  143.1744  162.7529 C.3     1  UNL1        0.0415
     30 C         139.2079  142.7573  163.7530 C.3     1  UNL1        0.0415
@<TRIPOS>BOND
     1     3     4    1
     2     4     5    1
     3     5     6    1
     4     6     7    1
     5     7     2    1
     6     2     1    1
     7     1    16    1
     8    16    17    1
     9    17    18   ar
    10    18    19   ar
    11    19    23    1
    12    23    24    1
    13    23    25    1
    14    23    26    1
    15    19    20   ar
    16    20    21   ar
    17    21    27    1
    18    27    28    1
    19    27    29    1
    20    29    30    1
    21    21    22   ar
    22     7    10    1
    23    10    11   ar
    24    11    12   ar
    25    12    13   ar
    26    13    14   ar
    27    14    15   ar
    28     7     8    1
    29     8     9    1
    30     9     4    1
    31    22    17   ar
    32    15    10   ar
    33    30    27    1
@<TRIPOS>MOLECULE
*****
 30 33 0 0 0
SMALL
GASTEIGER

@<TRIPOS>ATOM
      1 O         141.7402  138.0065  162.4525 O.3     1  UNL1       -0.3470
      2 C         140.2870  137.7633  162.7334 C.3     1  UNL1        0.1467
      3 C         137.9580  140.5344  158.2906 C.3     1  UNL1        0.0896
      4 N         138.3890  139.9242  159.5913 N.3     1  UNL1       -0.2715
      5 C         137.6536  140.2564  160.8557 C.3     1  UNL1        0.0725
      6 C         138.0846  139.6462  162.1565 C.3     1  UNL1        0.0238
      7 C         139.2510  138.7038  162.1928 C.3     1  UNL1        0.0489
      8 C         139.9864  138.3716  160.9284 C.3     1  UNL1        0.0238
      9 C         139.5554  138.9818  159.6276 C.3     1  UNL1        0.0725
     10 C         138.8754  138.7094  163.6450 C.ar    1  UNL1       -0.0204
     11 C         138.5098  139.9980  164.3202 C.ar    1  UNL1       -0.0042
     12 C         138.1342  140.0036  165.7723 C.ar    1  UNL1       -0.0003
     13 C         138.1241  138.7206  166.5493 C.ar    1  UNL1       -0.0000
     14 C         138.4897  137.4320  165.8742 C.ar    1  UNL1       -0.0003
     15 C         138.8653  137.4264  164.4220 C.ar    1  UNL1       -0.0042
     16 C         142.6671  138.3840  163.5699 C.3     1  UNL1        0.1874
     17 C         142.2634  139.4411  164.5545 C.ar    1  UNL1        0.0884
     18 C         142.0288  139.0779  165.9909 C.ar    1  UNL1        0.0211
     19 C         141.6251  140.1351  166.9754 C.ar    1  UNL1        0.0739
     20 C         141.4560  141.5554  166.5237 C.ar    1  UNL1        0.0212
     21 C         141.6905  141.9186  165.0873 C.ar    1  UNL1        0.0880
     22 N         142.0943  140.8615  164.1027 N.ar    1  UNL1       -0.2489
     23 C         141.3905  139.7719  168.4118 C.3     1  UNL1        0.4187
     24 F         141.1560  139.4088  169.8481 F       1  UNL1       -0.1659
     25 F         142.6415  138.9442  168.4068 F       1  UNL1       -0.1659
     26 F         140.1396  140.5997  168.4167 F       1  UNL1       -0.1659
     27 C         141.5214  143.3389  164.6356 C.3     1  UNL1        0.1686
     28 F         142.9264  143.8356  164.8066 F       1  UNL1       -0.2340
     29 C         140.8644  144.5867  164.1246 C.3     1  UNL1        0.0415
     30 C         140.0577  143.3354  164.3078 C.3     1  UNL1        0.0415
@<TRIPOS>BOND
     1     3     4    1
     2     4     5    1
     3     5     6    1
     4     6     7    1
     5     7     2    1
     6     2     1    1
     7     1    16    1
     8    16    17    1
     9    17    18   ar
    10    18    19   ar
    11    19    23    1
    12    23    24    1
    13    23    25    1
    14    23    26    1
    15    19    20   ar
    16    20    21   ar
    17    21    27    1
    18    27    28    1
    19    27    29    1
    20    29    30    1
    21    21    22   ar
    22     7    10    1
    23    10    11   ar
    24    11    12   ar
    25    12    13   ar
    26    13    14   ar
    27    14    15   ar
    28     7     8    1
    29     8     9    1
    30     9     4    1
    31    22    17   ar
    32    15    10   ar
    33    30    27    1
@<TRIPOS>MOLECULE
*****
 30 33 0 0 0
SMALL
GASTEIGER

@<TRIPOS>ATOM
      1 O         143.1206  138.5184  164.2367 O.3     1  UNL1       -0.3470
      2 C         141.7474  137.9526  164.0265 C.3     1  UNL1        0.1467
      3 C         141.3841  138.4380  158.3279 C.3     1  UNL1        0.0896
      4 N         141.2427  138.4016  159.8208 N.3     1  UNL1       -0.2715
      5 C         139.9651  138.8526  160.4643 C.3     1  UNL1        0.0725
      6 C         139.8237  138.8162  161.9572 C.3     1  UNL1        0.0238
      7 C         140.9599  138.3288  162.8065 C.3     1  UNL1        0.0489
      8 C         142.2375  137.8777  162.1630 C.3     1  UNL1        0.0238
      9 C         142.3789  137.9142  160.6701 C.3     1  UNL1        0.0725
     10 C         139.9557  138.6492  163.8738 C.ar    1  UNL1       -0.0204
     11 C         139.5609  137.6008  164.8712 C.ar    1  UNL1       -0.0042
     12 C         138.5568  137.9211  165.9385 C.ar    1  UNL1       -0.0003
     13 C         137.9474  139.2900  166.0083 C.ar    1  UNL1       -0.0000
     14 C         138.3422  140.3385  165.0109 C.ar    1  UNL1       -0.0003
     15 C         139.3463  140.0180  163.9436 C.ar    1  UNL1       -0.0042
     16 C         143.4198  139.3238  165.4663 C.3     1  UNL1        0.1874
     17 C         142.4878  140.4202  165.8898 C.ar    1  UNL1        0.0884
     18 C         141.6793  140.2743  167.1448 C.ar    1  UNL1        0.0211
     19 C         140.7474  141.3708  167.5682 C.ar    1  UNL1        0.0739
     20 C         140.6240  142.6131  166.7368 C.ar    1  UNL1        0.0212
     21 C         141.4326  142.7590  165.4818 C.ar    1  UNL1        0.0880
     22 N         142.3645  141.6626  165.0583 N.ar    1  UNL1       -0.2489
     23 C         139.9388  141.2249  168.8233 C.3     1  UNL1        0.4187
     24 F         139.1302  141.0791  170.0782 F       1  UNL1       -0.1659
     25 F         139.9834  142.7107  169.0246 F       1  UNL1       -0.1659
     26 F         139.8942  139.7392  168.6219 F       1  UNL1       -0.1659
     27 C         141.3092  144.0013  164.6503 C.3     1  UNL1        0.1686
     28 F         139.8653  144.3312  164.8877 F       1  UNL1       -0.2340
     29 C         141.6872  145.1291  163.7365 C.3     1  UNL1        0.0415
     30 C         142.7102  144.1029  164.1243 C.3     1  UNL1        0.0415
@<TRIPOS>BOND
     1     3     4    1
     2     4     5    1
     3     5     6    1
     4     6     7    1
     5     7     2    1
     6     2     1    1
     7     1    16    1
     8    16    17    1
     9    17    18   ar
    10    18    19   ar
    11    19    23    1
    12    23    24    1
    13    23    25    1
    14    23    26    1
    15    19    20   ar
    16    20    21   ar
    17    21    27    1
    18    27    28    1
    19    27    29    1
    20    29    30    1
    21    21    22   ar
    22     7    10    1
    23    10    11   ar
    24    11    12   ar
    25    12    13   ar
    26    13    14   ar
    27    14    15   ar
    28     7     8    1
    29     8     9    1
    30     9     4    1
    31    22    17   ar
    32    15    10   ar
    33    30    27    1
@<TRIPOS>MOLECULE
*****
 30 33 0 0 0
SMALL
GASTEIGER

@<TRIPOS>ATOM
      1 O         138.0443  139.1661  165.0158 O.3     1  UNL1       -0.3470
      2 C         138.0188  140.3963  164.1580 C.3     1  UNL1        0.1467
      3 C         141.2628  138.4755  159.8419 C.3     1  UNL1        0.0896
      4 N         140.5437  139.1940  160.9449 N.3     1  UNL1       -0.2715
      5 C         140.9057  140.6110  161.2778 C.3     1  UNL1        0.0725
      6 C         140.1866  141.3296  162.3808 C.3     1  UNL1        0.0238
      7 C         139.1054  140.6310  163.1508 C.3     1  UNL1        0.0489
      8 C         138.7433  139.2140  162.8179 C.3     1  UNL1        0.0238
      9 C         139.4625  138.4955  161.7149 C.3     1  UNL1        0.0725
     10 C         139.0901  141.9666  163.8336 C.ar    1  UNL1       -0.0204
     11 C         140.3680  142.5616  164.3461 C.ar    1  UNL1       -0.0042
     12 C         140.3528  143.8971  165.0288 C.ar    1  UNL1       -0.0003
     13 C         139.0595  144.6376  165.1990 C.ar    1  UNL1       -0.0000
     14 C         137.7815  144.0427  164.6865 C.ar    1  UNL1       -0.0003
     15 C         137.7968  142.7071  164.0038 C.ar    1  UNL1       -0.0042
     16 C         138.5602  139.2430  166.4223 C.3     1  UNL1        0.1874
     17 C         139.8979  139.8632  166.6976 C.ar    1  UNL1        0.0884
     18 C         140.0181  140.9728  167.6999 C.ar    1  UNL1        0.0211
     19 C         141.3559  141.5930  167.9751 C.ar    1  UNL1        0.0739
     20 C         142.5733  141.1037  167.2483 C.ar    1  UNL1        0.0212
     21 C         142.4531  139.9941  166.2460 C.ar    1  UNL1        0.0880
     22 N         141.1153  139.3739  165.9707 N.ar    1  UNL1       -0.2489
     23 C         141.4763  142.7026  168.9774 C.3     1  UNL1        0.4187
     24 F         141.5966  143.8121  169.9796 F       1  UNL1       -0.1659
     25 F         140.2491  143.3503  168.4076 F       1  UNL1       -0.1659
     26 F         142.7033  142.0548  169.5472 F       1  UNL1       -0.1659
     27 C         143.6705  139.5048  165.5191 C.3     1  UNL1        0.1686
     28 F         143.9852  138.2834  166.3309 F       1  UNL1       -0.2340
     29 C         144.7787  139.4397  164.5103 C.3     1  UNL1        0.0415
     30 C         143.7786  140.5563  164.4549 C.3     1  UNL1        0.0415
@<TRIPOS>BOND
     1     3     4    1
     2     4     5    1
     3     5     6    1
     4     6     7    1
     5     7     2    1
     6     2     1    1
     7     1    16    1
     8    16    17    1
     9    17    18   ar
    10    18    19   ar
    11    19    23    1
    12    23    24    1
    13    23    25    1
    14    23    26    1
    15    19    20   ar
    16    20    21   ar
    17    21    27    1
    18    27    28    1
    19    27    29    1
    20    29    30    1
    21    21    22   ar
    22     7    10    1
    23    10    11   ar
    24    11    12   ar
    25    12    13   ar
    26    13    14   ar
    27    14    15   ar
    28     7     8    1
    29     8     9    1
    30     9     4    1
    31    22    17   ar
    32    15    10   ar
    33    30    27    1
@<TRIPOS>MOLECULE
*****
 30 33 0 0 0
SMALL
GASTEIGER

@<TRIPOS>ATOM
      1 O         139.5764  144.9024  164.3331 O.3     1  UNL1       -0.3470
      2 C         141.0350  144.8029  163.9977 C.3     1  UNL1        0.1467
      3 C         140.5883  145.5293  158.3307 C.3     1  UNL1        0.0896
      4 N         140.8793  145.1645  159.7563 N.3     1  UNL1       -0.2715
      5 C         141.8998  144.1101  160.0673 C.3     1  UNL1        0.0725
      6 C         142.1908  143.7453  161.4929 C.3     1  UNL1        0.0238
      7 C         141.4615  144.4350  162.6074 C.3     1  UNL1        0.0489
      8 C         140.4410  145.4894  162.2964 C.3     1  UNL1        0.0238
      9 C         140.1500  145.8542  160.8708 C.3     1  UNL1        0.0725
     10 C         142.3339  143.5082  163.4013 C.ar    1  UNL1       -0.0204
     11 C         142.1638  142.0236  163.2721 C.ar    1  UNL1       -0.0042
     12 C         143.0361  141.0968  164.0659 C.ar    1  UNL1       -0.0003
     13 C         144.0785  141.6548  164.9889 C.ar    1  UNL1       -0.0000
     14 C         144.2487  143.1395  165.1181 C.ar    1  UNL1       -0.0003
     15 C         143.3763  144.0663  164.3243 C.ar    1  UNL1       -0.0042
     16 C         139.0394  144.2174  165.5548 C.3     1  UNL1        0.1874
     17 C         139.6337  142.9168  166.0077 C.ar    1  UNL1        0.0884
     18 C         140.7865  142.9129  166.9675 C.ar    1  UNL1        0.0211
     19 C         141.3808  141.6122  167.4204 C.ar    1  UNL1        0.0739
     20 C         140.8225  140.3156  166.9135 C.ar    1  UNL1        0.0212
     21 C         139.6697  140.3195  165.9537 C.ar    1  UNL1        0.0880
     22 N         139.0753  141.6201  165.5008 N.ar    1  UNL1       -0.2489
     23 C         142.5336  141.6082  168.3802 C.3     1  UNL1        0.4187
     24 F         143.6863  141.6041  169.3399 F       1  UNL1       -0.1659
     25 F         142.9542  140.2620  167.8693 F       1  UNL1       -0.1659
     26 F         142.1130  142.9544  168.8910 F       1  UNL1       -0.1659
     27 C         139.1114  139.0229  165.4469 C.3     1  UNL1        0.1686
     28 F         137.7209  139.1026  166.0040 F       1  UNL1       -0.2340
     29 C         139.0359  137.6986  164.7466 C.3     1  UNL1        0.0415
     30 C         140.3079  138.4929  164.7138 C.3     1  UNL1        0.0415
@<TRIPOS>BOND
     1     3     4    1
     2     4     5    1
     3     5     6    1
     4     6     7    1
     5     7     2    1
     6     2     1    1
     7     1    16    1
     8    16    17    1
     9    17    18   ar
    10    18    19   ar
    11    19    23    1
    12    23    24    1
    13    23    25    1
    14    23    26    1
    15    19    20   ar
    16    20    21   ar
    17    21    27    1
    18    27    28    1
    19    27    29    1
    20    29    30    1
    21    21    22   ar
    22     7    10    1
    23    10    11   ar
    24    11    12   ar
    25    12    13   ar
    26    13    14   ar
    27    14    15   ar
    28     7     8    1
    29     8     9    1
    30     9     4    1
    31    22    17   ar
    32    15    10   ar
    33    30    27    1
@<TRIPOS>MOLECULE
*****
 30 33 0 0 0
SMALL
GASTEIGER

@<TRIPOS>ATOM
      1 O         138.3738  138.2647  165.2599 O.3     1  UNL1       -0.3470
      2 C         139.6363  138.0109  164.4908 C.3     1  UNL1        0.1467
      3 C         138.0135  140.0387  159.3823 C.3     1  UNL1        0.0896
      4 N         138.6555  139.6304  160.6751 N.3     1  UNL1       -0.2715
      5 C         140.0473  140.0868  160.9982 C.3     1  UNL1        0.0725
      6 C         140.6893  139.6785  162.2910 C.3     1  UNL1        0.0238
      7 C         139.9394  138.8139  163.2606 C.3     1  UNL1        0.0489
      8 C         138.5476  138.3576  162.9374 C.3     1  UNL1        0.0238
      9 C         137.9056  138.7659  161.6447 C.3     1  UNL1        0.0725
     10 C         141.2261  138.9914  164.0110 C.ar    1  UNL1       -0.0204
     11 C         141.7243  137.9019  164.9135 C.ar    1  UNL1       -0.0042
     12 C         143.0109  138.0793  165.6640 C.ar    1  UNL1       -0.0003
     13 C         143.7993  139.3463  165.5118 C.ar    1  UNL1       -0.0000
     14 C         143.3011  140.4359  164.6093 C.ar    1  UNL1       -0.0003
     15 C         142.0144  140.2584  163.8588 C.ar    1  UNL1       -0.0042
     16 C         138.4146  139.0727  166.5231 C.3     1  UNL1        0.1874
     17 C         139.3641  140.2276  166.6443 C.ar    1  UNL1        0.0884
     18 C         140.4915  140.1711  167.6322 C.ar    1  UNL1        0.0211
     19 C         141.4409  141.3260  167.7534 C.ar    1  UNL1        0.0739
     20 C         141.2630  142.5373  166.8868 C.ar    1  UNL1        0.0212
     21 C         140.1356  142.5938  165.8989 C.ar    1  UNL1        0.0880
     22 N         139.1861  141.4389  165.7777 N.ar    1  UNL1       -0.2489
     23 C         142.5684  141.2696  168.7412 C.3     1  UNL1        0.4187
     24 F         143.6957  141.2131  169.7290 F       1  UNL1       -0.1659
     25 F         142.6235  139.7779  168.5930 F       1  UNL1       -0.1659
     26 F         142.5132  142.7612  168.8893 F       1  UNL1       -0.1659
     27 C         139.9577  143.8051  165.0324 C.3     1  UNL1        0.1686
     28 F         141.3933  144.1777  164.8078 F       1  UNL1       -0.2340
     29 C         139.2814  144.8871  164.2438 C.3     1  UNL1        0.0415
     30 C         138.4605  143.8532  164.9560 C.3     1  UNL1        0.0415
@<TRIPOS>BOND
     1     3     4    1
     2     4     5    1
     3     5     6    1
     4     6     7    1
     5     7     2    1
     6     2     1    1
     7     1    16    1
     8    16    17    1
     9    17    18   ar
    10    18    19   ar
    11    19    23    1
    12    23    24    1
    13    23    25    1
    14    23    26    1
    15    19    20   ar
    16    20    21   ar
    17    21    27    1
    18    27    28    1
    19    27    29    1
    20    29    30    1
    21    21    22   ar
    22     7    10    1
    23    10    11   ar
    24    11    12   ar
    25    12    13   ar
    26    13    14   ar
    27    14    15   ar
    28     7     8    1
    29     8     9    1
    30     9     4    1
    31    22    17   ar
    32    15    10   ar
    33    30    27    1
@<TRIPOS>MOLECULE
*****
 30 33 0 0 0
SMALL
GASTEIGER

@<TRIPOS>ATOM
      1 O         138.5334  138.2767  164.5997 O.3     1  UNL1       -0.3470
      2 C         139.9390  137.9473  164.1923 C.3     1  UNL1        0.1467
      3 C         139.5151  138.9185  158.5603 C.3     1  UNL1        0.0896
      4 N         139.8465  138.7877  160.0174 N.3     1  UNL1       -0.2715
      5 C         141.1231  139.3670  160.5511 C.3     1  UNL1        0.0725
      6 C         141.4545  139.2362  162.0081 C.3     1  UNL1        0.0238
      7 C         140.5095  138.5261  162.9315 C.3     1  UNL1        0.0489
      8 C         139.2330  137.9468  162.3978 C.3     1  UNL1        0.0238
      9 C         138.9015  138.0776  160.9407 C.3     1  UNL1        0.0725
     10 C         141.5879  138.9044  163.9031 C.ar    1  UNL1       -0.0204
     11 C         142.0289  137.9271  164.9521 C.ar    1  UNL1       -0.0042
     12 C         143.1073  138.3053  165.9236 C.ar    1  UNL1       -0.0003
     13 C         143.7447  139.6609  165.8462 C.ar    1  UNL1       -0.0000
     14 C         143.3038  140.6383  164.7972 C.ar    1  UNL1       -0.0003
     15 C         142.2254  140.2600  163.8256 C.ar    1  UNL1       -0.0042
     16 C         138.2797  139.0549  165.8567 C.3     1  UNL1        0.1874
     17 C         139.1935  140.1815  166.2386 C.ar    1  UNL1        0.0884
     18 C         139.1412  141.4777  165.4856 C.ar    1  UNL1        0.0211
     19 C         140.0550  142.6042  165.8675 C.ar    1  UNL1        0.0739
     20 C         141.0210  142.4346  167.0024 C.ar    1  UNL1        0.0212
     21 C         141.0733  141.1383  167.7555 C.ar    1  UNL1        0.0880
     22 N         140.1595  140.0118  167.3736 N.ar    1  UNL1       -0.2489
     23 C         140.0028  143.9006  165.1145 C.3     1  UNL1        0.4187
     24 F         139.9506  145.1968  164.3616 F       1  UNL1       -0.1659
     25 F         138.5402  144.0216  165.4245 F       1  UNL1       -0.1659
     26 F         141.4655  143.7794  164.8046 F       1  UNL1       -0.1659
     27 C         142.0393  140.9687  168.8904 C.3     1  UNL1        0.1686
     28 F         141.4822  139.7281  169.5233 F       1  UNL1       -0.2340
     29 C         143.1987  141.2299  169.8055 C.3     1  UNL1        0.0415
     30 C         142.9318  142.1503  168.6516 C.3     1  UNL1        0.0415
@<TRIPOS>BOND
     1     3     4    1
     2     4     5    1
     3     5     6    1
     4     6     7    1
     5     7     2    1
     6     2     1    1
     7     1    16    1
     8    16    17    1
     9    17    18   ar
    10    18    19   ar
    11    19    23    1
    12    23    24    1
    13    23    25    1
    14    23    26    1
    15    19    20   ar
    16    20    21   ar
    17    21    27    1
    18    27    28    1
    19    27    29    1
    20    29    30    1
    21    21    22   ar
    22     7    10    1
    23    10    11   ar
    24    11    12   ar
    25    12    13   ar
    26    13    14   ar
    27    14    15   ar
    28     7     8    1
    29     8     9    1
    30     9     4    1
    31    22    17   ar
    32    15    10   ar
    33    30    27    1
@<TRIPOS>MOLECULE
*****
 30 33 0 0 0
SMALL
GASTEIGER

@<TRIPOS>ATOM
      1 O         143.3593  140.7435  165.6190 O.3     1  UNL1       -0.3470
      2 C         142.4387  139.6631  166.1041 C.3     1  UNL1        0.1467
      3 C         141.2980  141.6234  171.3670 C.3     1  UNL1        0.0896
      4 N         141.3474  141.0674  169.9748 N.3     1  UNL1       -0.2715
      5 C         140.0859  140.6090  169.3050 C.3     1  UNL1        0.0725
      6 C         140.1354  140.0529  167.9128 C.3     1  UNL1        0.0238
      7 C         141.4462  139.9552  167.1903 C.3     1  UNL1        0.0489
      8 C         142.7077  140.4136  167.8600 C.3     1  UNL1        0.0238
      9 C         142.6582  140.9697  169.2523 C.3     1  UNL1        0.0725
     10 C         140.5294  139.3953  166.1433 C.ar    1  UNL1       -0.0204
     11 C         141.0082  138.3029  165.2337 C.ar    1  UNL1       -0.0042
     12 C         140.0914  137.7430  164.1868 C.ar    1  UNL1       -0.0003
     13 C         138.6959  138.2756  164.0495 C.ar    1  UNL1       -0.0000
     14 C         138.2171  139.3680  164.9590 C.ar    1  UNL1       -0.0003
     15 C         139.1339  139.9279  166.0060 C.ar    1  UNL1       -0.0042
     16 C         143.0556  141.4703  164.3425 C.3     1  UNL1        0.1874
     17 C         141.6495  141.8940  164.0370 C.ar    1  UNL1        0.0884
     18 C         140.9909  142.9591  164.8629 C.ar    1  UNL1        0.0211
     19 C         139.5849  143.3828  164.5574 C.ar    1  UNL1        0.0739
     20 C         138.8373  142.7415  163.4261 C.ar    1  UNL1        0.0212
     21 C         139.4958  141.6764  162.6002 C.ar    1  UNL1        0.0880
     22 N         140.9019  141.2527  162.9057 N.ar    1  UNL1       -0.2489
     23 C         138.9262  144.4479  165.3832 C.3     1  UNL1        0.4187
     24 F         138.2677  145.5129  166.2090 F       1  UNL1       -0.1659
     25 F         139.6701  143.9686  166.5944 F       1  UNL1       -0.1659
     26 F         138.1824  144.9270  164.1719 F       1  UNL1       -0.1659
     27 C         138.7483  141.0351  161.4690 C.3     1  UNL1        0.1686
     28 F         137.3621  141.0306  162.0422 F       1  UNL1       -0.2340
     29 C         138.4820  140.3953  160.1387 C.3     1  UNL1        0.0415
     30 C         139.8747  140.8169  160.5029 C.3     1  UNL1        0.0415
@<TRIPOS>BOND
     1     3     4    1
     2     4     5    1
     3     5     6    1
     4     6     7    1
     5     7     2    1
     6     2     1    1
     7     1    16    1
     8    16    17    1
     9    17    18   ar
    10    18    19   ar
    11    19    23    1
    12    23    24    1
    13    23    25    1
    14    23    26    1
    15    19    20   ar
    16    20    21   ar
    17    21    27    1
    18    27    28    1
    19    27    29    1
    20    29    30    1
    21    21    22   ar
    22     7    10    1
    23    10    11   ar
    24    11    12   ar
    25    12    13   ar
    26    13    14   ar
    27    14    15   ar
    28     7     8    1
    29     8     9    1
    30     9     4    1
    31    22    17   ar
    32    15    10   ar
    33    30    27    1
