@<TRIPOS>MOLECULE
*****
 38 42 0 0 0
SMALL
GASTEIGER

@<TRIPOS>ATOM
      1 C         137.7835  139.6523  161.1134 C.ar    1  UNL1        0.0503
      2 C         137.6261  140.6818  162.1928 C.ar    1  UNL1        0.0143
      3 C         138.0243  140.3577  163.6022 C.ar    1  UNL1       -0.0029
      4 C         138.5799  139.0040  163.9322 C.ar    1  UNL1       -0.0208
      5 C         138.7373  137.9744  162.8528 C.ar    1  UNL1       -0.0029
      6 C         138.3391  138.2986  161.4434 C.ar    1  UNL1        0.0143
      7 C         138.3016  140.7832  158.8324 C.2     1  UNL1        0.2313
      8 O         139.6160  141.2659  159.3704 O.2     1  UNL1       -0.2744
      9 N         137.3854  139.9763  159.7040 N.am    1  UNL1       -0.2836
     10 H         136.5227  139.6595  159.3509 H       1  UNL1        0.1549
     11 N         133.0148  139.8664  155.5689 N.pl3   1  UNL1       -0.3375
     12 C         134.4247  140.3364  155.7719 C.ar    1  UNL1        0.1560
     13 N         135.2216  140.2134  157.0368 N.ar    1  UNL1       -0.2287
     14 C         136.5747  140.8128  156.7924 C.ar    1  UNL1        0.0712
     15 C         136.6141  141.3062  155.3764 C.ar    1  UNL1        0.0239
     16 S         135.2854  141.0118  154.7458 S.2     1  UNL1       -0.0567
     17 C         137.9673  141.9057  155.1320 C.3     1  UNL1        0.0351
     18 C         138.7640  141.7827  156.3969 C.3     1  UNL1        0.0204
     19 C         137.9034  141.1073  157.4230 C.3     1  UNL1        0.1174
     20 H         132.5296  139.4317  156.3071 H       1  UNL1        0.1442
     21 H         132.5745  139.9927  154.6974 H       1  UNL1        0.1442
     22 C         138.9780  138.6799  165.3416 C.3     1  UNL1        0.0420
     23 C         139.8543  139.6246  166.1095 C.3     1  UNL1        0.0585
     24 C         139.6022  140.1284  167.4997 C.3     1  UNL1        0.0175
     25 C         140.7287  141.0465  167.8714 C.3     1  UNL1        0.0199
     26 C         141.6770  141.1101  166.7109 C.3     1  UNL1        0.0855
     27 N         141.1366  140.2313  165.6220 N.3     1  UNL1       -0.2971
     28 H         141.8083  139.4945  165.4066 H       1  UNL1        0.1233
     29 C         142.9433  141.9117  166.6501 C.3     1  UNL1        0.1470
     30 O         143.4757  142.5682  167.8893 O.3     1  UNL1       -0.3787
     31 H         142.8863  142.3765  168.6355 H       1  UNL1        0.2108
     32 C         143.6774  142.0569  165.3501 C.ar    1  UNL1        0.0078
     33 C         144.4138  140.8860  164.7698 C.ar    1  UNL1       -0.0018
     34 C         145.1478  141.0312  163.4698 C.ar    1  UNL1        0.0021
     35 C         145.1455  142.3471  162.7499 C.ar    1  UNL1        0.0296
     36 C         144.4090  143.5180  163.3302 C.ar    1  UNL1        0.1399
     37 F         144.4066  144.8340  162.6105 F       1  UNL1       -0.2042
     38 C         143.6750  143.3728  164.6303 C.ar    1  UNL1        0.0277
@<TRIPOS>BOND
     1    11    12    1
     2    12    13   ar
     3    13    14   ar
     4    14    15   ar
     5    15    16   ar
     6    15    17    1
     7    17    18    1
     8    18    19    1
     9    19     7    1
    10     7     8    2
    11     7     9   am
    12     9     1    1
    13     1     2   ar
    14     2     3   ar
    15     3     4   ar
    16     4    22    1
    17    23    22    1
    18    23    24    1
    19    24    25    1
    20    26    25    1
    21    26    29    1
    22    29    30    1
    23    29    32    1
    24    32    33   ar
    25    33    34   ar
    26    34    35   ar
    27    35    36   ar
    28    36    37    1
    29    36    38   ar
    30    26    27    1
    31     4     5   ar
    32     5     6   ar
    33    16    12   ar
    34     6     1   ar
    35    19    14    1
    36    27    23    1
    37    38    32   ar
    38    11    20    1
    39    11    21    1
    40     9    10    1
    41    30    31    1
    42    27    28    1
@<TRIPOS>MOLECULE
*****
 38 42 0 0 0
SMALL
GASTEIGER

@<TRIPOS>ATOM
      1 C         139.2900  138.9655  159.8520 C.ar    1  UNL1        0.0503
      2 C         138.4849  138.5646  161.0525 C.ar    1  UNL1        0.0143
      3 C         139.1760  138.0604  162.2847 C.ar    1  UNL1       -0.0029
      4 C         140.6721  137.9571  162.3165 C.ar    1  UNL1       -0.0208
      5 C         141.4772  138.3580  161.1160 C.ar    1  UNL1       -0.0029
      6 C         140.7861  138.8622  159.8838 C.ar    1  UNL1        0.0143
      7 C         138.2706  140.9272  158.4874 C.2     1  UNL1        0.2313
      8 O         138.6331  141.8806  159.5872 O.2     1  UNL1       -0.2744
      9 N         138.5990  139.4696  158.6198 N.am    1  UNL1       -0.2836
     10 H         138.3611  138.8439  157.8980 H       1  UNL1        0.1549
     11 N         132.7715  139.5251  155.7973 N.pl3   1  UNL1       -0.3375
     12 C         134.0793  140.2487  155.9243 C.ar    1  UNL1        0.1560
     13 N         135.0921  140.0550  157.0137 N.ar    1  UNL1       -0.2287
     14 C         136.2426  140.9797  156.7468 C.ar    1  UNL1        0.0712
     15 C         135.9410  141.7449  155.4924 C.ar    1  UNL1        0.0239
     16 S         134.6040  141.2931  154.9841 S.2     1  UNL1       -0.0567
     17 C         137.0916  142.6695  155.2256 C.3     1  UNL1        0.0351
     18 C         138.1042  142.4758  156.3150 C.3     1  UNL1        0.0204
     19 C         137.5796  141.4314  157.2552 C.3     1  UNL1        0.1174
     20 H         132.5138  138.8527  156.4686 H       1  UNL1        0.1442
     21 H         132.1709  139.7226  155.0427 H       1  UNL1        0.1442
     22 C         141.3630  137.4529  163.5487 C.3     1  UNL1        0.0420
     23 C         141.8251  138.4199  164.5982 C.3     1  UNL1        0.0585
     24 C         142.8449  138.1444  165.6631 C.3     1  UNL1        0.0175
     25 C         142.9985  139.3864  166.4902 C.3     1  UNL1        0.0199
     26 C         142.0736  140.4293  165.9365 C.3     1  UNL1        0.0855
     27 N         141.3483  139.8320  164.7672 N.3     1  UNL1       -0.2971
     28 H         141.5503  140.3688  163.9237 H       1  UNL1        0.1233
     29 C         141.9037  141.8246  166.4601 C.3     1  UNL1        0.1470
     30 O         142.3959  142.1756  167.8329 O.3     1  UNL1       -0.3787
     31 H         142.7948  141.3925  168.2434 H       1  UNL1        0.2108
     32 C         141.2417  142.8690  165.6110 C.ar    1  UNL1        0.0078
     33 C         141.9911  143.4959  164.4729 C.ar    1  UNL1       -0.0018
     34 C         141.3290  144.5403  163.6237 C.ar    1  UNL1        0.0021
     35 C         139.9176  144.9577  163.9127 C.ar    1  UNL1        0.0296
     36 C         139.1682  144.3308  165.0508 C.ar    1  UNL1        0.1399
     37 F         137.7567  144.7482  165.3398 F       1  UNL1       -0.2042
     38 C         139.8302  143.2864  165.8999 C.ar    1  UNL1        0.0277
@<TRIPOS>BOND
     1    11    12    1
     2    12    13   ar
     3    13    14   ar
     4    14    15   ar
     5    15    16   ar
     6    15    17    1
     7    17    18    1
     8    18    19    1
     9    19     7    1
    10     7     8    2
    11     7     9   am
    12     9     1    1
    13     1     2   ar
    14     2     3   ar
    15     3     4   ar
    16     4    22    1
    17    23    22    1
    18    23    24    1
    19    24    25    1
    20    26    25    1
    21    26    29    1
    22    29    30    1
    23    29    32    1
    24    32    33   ar
    25    33    34   ar
    26    34    35   ar
    27    35    36   ar
    28    36    37    1
    29    36    38   ar
    30    26    27    1
    31     4     5   ar
    32     5     6   ar
    33    16    12   ar
    34     6     1   ar
    35    19    14    1
    36    27    23    1
    37    38    32   ar
    38    11    20    1
    39    11    21    1
    40     9    10    1
    41    30    31    1
    42    27    28    1
@<TRIPOS>MOLECULE
*****
 38 42 0 0 0
SMALL
GASTEIGER

@<TRIPOS>ATOM
      1 C         143.7019  139.6828  159.1352 C.ar    1  UNL1        0.0503
      2 C         143.8054  141.1334  158.7676 C.ar    1  UNL1        0.0143
      3 C         144.1273  142.1527  159.8200 C.ar    1  UNL1       -0.0029
      4 C         144.3457  141.7214  161.2400 C.ar    1  UNL1       -0.0208
      5 C         144.2421  140.2709  161.6076 C.ar    1  UNL1       -0.0029
      6 C         143.9202  139.2516  160.5552 C.ar    1  UNL1        0.0143
      7 C         141.9854  138.1244  157.9626 C.2     1  UNL1        0.2313
      8 O         140.9127  138.6047  158.8946 O.2     1  UNL1       -0.2744
      9 N         143.3800  138.6635  158.0829 N.am    1  UNL1       -0.2836
     10 H         144.0840  138.3483  157.4712 H       1  UNL1        0.1549
     11 N         144.7563  132.7657  156.2167 N.pl3   1  UNL1       -0.3375
     12 C         143.7130  133.8417  156.1543 C.ar    1  UNL1        0.1560
     13 N         143.6478  135.0584  157.0291 N.ar    1  UNL1       -0.2287
     14 C         142.4464  135.8586  156.6215 C.ar    1  UNL1        0.0712
     15 C         141.7690  135.1364  155.4947 C.ar    1  UNL1        0.0239
     16 S         142.5518  133.8899  155.2060 S.2     1  UNL1       -0.0567
     17 C         140.5675  135.9366  155.0872 C.3     1  UNL1        0.0351
     18 C         140.5023  137.1533  155.9620 C.3     1  UNL1        0.0204
     19 C         141.6635  137.1051  156.9103 C.3     1  UNL1        0.1174
     20 H         145.4836  132.8230  156.8777 H       1  UNL1        0.1442
     21 H         144.7136  132.0021  155.5968 H       1  UNL1        0.1442
     22 C         144.6676  142.7408  162.2923 C.3     1  UNL1        0.0420
     23 C         143.5626  143.5064  162.9577 C.3     1  UNL1        0.0585
     24 C         143.5483  144.9828  163.2225 C.3     1  UNL1        0.0175
     25 C         142.2547  145.3189  163.9037 C.3     1  UNL1        0.0199
     26 C         141.4697  144.0503  164.0598 C.3     1  UNL1        0.0855
     27 N         142.2780  142.9301  163.4752 N.3     1  UNL1       -0.2971
     28 H         141.7622  142.4931  162.7114 H       1  UNL1        0.1233
     29 C         140.1144  143.9241  164.6899 C.3     1  UNL1        0.1470
     30 O         139.2609  145.1424  164.8835 O.3     1  UNL1       -0.3787
     31 H         139.7307  145.9226  164.5498 H       1  UNL1        0.2108
     32 C         139.6125  142.5797  165.1264 C.ar    1  UNL1        0.0078
     33 C         138.5871  141.8583  164.3028 C.ar    1  UNL1       -0.0018
     34 C         138.0852  140.5138  164.7393 C.ar    1  UNL1        0.0021
     35 C         138.6086  139.8907  165.9993 C.ar    1  UNL1        0.0296
     36 C         139.6339  140.6121  166.8229 C.ar    1  UNL1        0.1399
     37 F         140.1573  139.9890  168.0830 F       1  UNL1       -0.2042
     38 C         140.1358  141.9566  166.3864 C.ar    1  UNL1        0.0277
@<TRIPOS>BOND
     1    11    12    1
     2    12    13   ar
     3    13    14   ar
     4    14    15   ar
     5    15    16   ar
     6    15    17    1
     7    17    18    1
     8    18    19    1
     9    19     7    1
    10     7     8    2
    11     7     9   am
    12     9     1    1
    13     1     2   ar
    14     2     3   ar
    15     3     4   ar
    16     4    22    1
    17    23    22    1
    18    23    24    1
    19    24    25    1
    20    26    25    1
    21    26    29    1
    22    29    30    1
    23    29    32    1
    24    32    33   ar
    25    33    34   ar
    26    34    35   ar
    27    35    36   ar
    28    36    37    1
    29    36    38   ar
    30    26    27    1
    31     4     5   ar
    32     5     6   ar
    33    16    12   ar
    34     6     1   ar
    35    19    14    1
    36    27    23    1
    37    38    32   ar
    38    11    20    1
    39    11    21    1
    40     9    10    1
    41    30    31    1
    42    27    28    1
@<TRIPOS>MOLECULE
*****
 38 42 0 0 0
SMALL
GASTEIGER

@<TRIPOS>ATOM
      1 C         139.4041  139.1692  159.1724 C.ar    1  UNL1        0.0503
      2 C         138.7688  138.7772  160.4735 C.ar    1  UNL1        0.0143
      3 C         139.6270  138.3696  161.6343 C.ar    1  UNL1       -0.0029
      4 C         141.1203  138.3540  161.4941 C.ar    1  UNL1       -0.0208
      5 C         141.7556  138.7459  160.1930 C.ar    1  UNL1       -0.0029
      6 C         140.8975  139.1535  159.0322 C.ar    1  UNL1        0.0143
      7 C         138.0003  140.9719  157.9357 C.2     1  UNL1        0.2313
      8 O         138.3125  141.9594  159.0207 O.2     1  UNL1       -0.2744
      9 N         138.5461  139.5768  158.0115 N.am    1  UNL1       -0.2836
     10 H         138.3411  138.9287  157.2994 H       1  UNL1        0.1549
     11 N         132.2538  139.2642  156.0640 N.pl3   1  UNL1       -0.3375
     12 C         133.5424  140.0271  155.9783 C.ar    1  UNL1        0.1560
     13 N         134.6910  139.9283  156.9379 N.ar    1  UNL1       -0.2287
     14 C         135.7672  140.8629  156.4706 C.ar    1  UNL1        0.0712
     15 C         135.2837  141.5394  155.2222 C.ar    1  UNL1        0.0239
     16 S         133.9087  141.0228  154.9179 S.2     1  UNL1       -0.0567
     17 C         136.3598  142.4740  154.7549 C.3     1  UNL1        0.0351
     18 C         137.5084  142.3752  155.7145 C.3     1  UNL1        0.0204
     19 C         137.1422  141.3795  156.7748 C.3     1  UNL1        0.1174
     20 H         132.1057  138.6293  156.8017 H       1  UNL1        0.1442
     21 H         131.5560  139.3983  155.3825 H       1  UNL1        0.1442
     22 C         141.9784  137.9464  162.6550 C.3     1  UNL1        0.0420
     23 C         141.9928  138.7758  163.9047 C.3     1  UNL1        0.0585
     24 C         142.2347  138.2698  165.2959 C.3     1  UNL1        0.0175
     25 C         142.1592  139.4382  166.2336 C.3     1  UNL1        0.0199
     26 C         141.8707  140.6662  165.4219 C.3     1  UNL1        0.0855
     27 N         141.7679  140.2568  163.9826 N.3     1  UNL1       -0.2971
     28 H         142.4756  140.7438  163.4328 H       1  UNL1        0.1233
     29 C         141.7128  142.0590  165.9559 C.3     1  UNL1        0.1470
     30 O         141.3701  143.1846  165.0255 O.3     1  UNL1       -0.3787
     31 H         141.2868  142.8428  164.1216 H       1  UNL1        0.2108
     32 C         141.8976  142.3262  167.4203 C.ar    1  UNL1        0.0078
     33 C         140.7134  142.6662  168.2760 C.ar    1  UNL1       -0.0018
     34 C         140.8982  142.9334  169.7403 C.ar    1  UNL1        0.0021
     35 C         142.2671  142.8606  170.3492 C.ar    1  UNL1        0.0296
     36 C         143.4513  142.5206  169.4935 C.ar    1  UNL1        0.1399
     37 F         144.8203  142.4477  170.1023 F       1  UNL1       -0.2042
     38 C         143.2665  142.2534  168.0292 C.ar    1  UNL1        0.0277
@<TRIPOS>BOND
     1    11    12    1
     2    12    13   ar
     3    13    14   ar
     4    14    15   ar
     5    15    16   ar
     6    15    17    1
     7    17    18    1
     8    18    19    1
     9    19     7    1
    10     7     8    2
    11     7     9   am
    12     9     1    1
    13     1     2   ar
    14     2     3   ar
    15     3     4   ar
    16     4    22    1
    17    23    22    1
    18    23    24    1
    19    24    25    1
    20    26    25    1
    21    26    29    1
    22    29    30    1
    23    29    32    1
    24    32    33   ar
    25    33    34   ar
    26    34    35   ar
    27    35    36   ar
    28    36    37    1
    29    36    38   ar
    30    26    27    1
    31     4     5   ar
    32     5     6   ar
    33    16    12   ar
    34     6     1   ar
    35    19    14    1
    36    27    23    1
    37    38    32   ar
    38    11    20    1
    39    11    21    1
    40     9    10    1
    41    30    31    1
    42    27    28    1
@<TRIPOS>MOLECULE
*****
 38 42 0 0 0
SMALL
GASTEIGER

@<TRIPOS>ATOM
      1 C         139.8862  145.0574  161.8282 C.ar    1  UNL1        0.0503
      2 C         138.5527  144.5593  162.3011 C.ar    1  UNL1        0.0143
      3 C         138.3646  144.1679  163.7369 C.ar    1  UNL1       -0.0029
      4 C         139.5098  144.2746  164.6997 C.ar    1  UNL1       -0.0208
      5 C         140.8433  144.7727  164.2268 C.ar    1  UNL1       -0.0029
      6 C         141.0314  145.1641  162.7910 C.ar    1  UNL1        0.0143
      7 C         140.6537  144.4673  159.4172 C.2     1  UNL1        0.2313
      8 O         141.0448  143.0944  159.8778 O.2     1  UNL1       -0.2744
      9 N         140.0745  145.4488  160.3924 N.am    1  UNL1       -0.2836
     10 H         139.8178  146.3499  160.0902 H       1  UNL1        0.1549
     11 N         138.1967  149.0365  155.8778 N.pl3   1  UNL1       -0.3375
     12 C         139.0660  147.8450  156.1513 C.ar    1  UNL1        0.1560
     13 N         139.1884  147.1249  157.4614 N.ar    1  UNL1       -0.2287
     14 C         140.1636  145.9994  157.2824 C.ar    1  UNL1        0.0712
     15 C         140.6440  146.0238  155.8616 C.ar    1  UNL1        0.0239
     16 S         139.9656  147.1645  155.1626 S.2     1  UNL1       -0.0567
     17 C         141.6193  144.8983  155.6827 C.3     1  UNL1        0.0351
     18 C         141.7416  144.1783  156.9928 C.3     1  UNL1        0.0204
     19 C         140.8420  144.8587  157.9815 C.3     1  UNL1        0.1174
     20 H         137.6383  149.4135  156.5957 H       1  UNL1        0.1442
     21 H         138.1844  149.4414  154.9805 H       1  UNL1        0.1442
     22 C         139.3215  143.8832  166.1355 C.3     1  UNL1        0.0420
     23 C         140.2555  142.8976  166.7728 C.3     1  UNL1        0.0585
     24 C         140.7302  142.9256  168.1954 C.3     1  UNL1        0.0175
     25 C         141.6469  141.7562  168.4013 C.3     1  UNL1        0.0199
     26 C         141.7386  141.0055  167.1059 C.3     1  UNL1        0.0855
     27 N         140.8787  141.7109  166.0994 N.3     1  UNL1       -0.2971
     28 H         140.1500  141.0807  165.7645 H       1  UNL1        0.1233
     29 C         142.5482  139.7668  166.8601 C.3     1  UNL1        0.1470
     30 O         143.0931  138.9849  168.0184 O.3     1  UNL1       -0.3787
     31 H         142.8325  139.4132  168.8488 H       1  UNL1        0.2108
     32 C         142.8128  139.3101  165.4561 C.ar    1  UNL1        0.0078
     33 C         144.0581  139.7515  164.7459 C.ar    1  UNL1       -0.0018
     34 C         144.3226  139.2948  163.3418 C.ar    1  UNL1        0.0021
     35 C         143.3420  138.3966  162.6479 C.ar    1  UNL1        0.0296
     36 C         142.0967  137.9552  163.3581 C.ar    1  UNL1        0.1399
     37 F         141.1159  137.0570  162.6643 F       1  UNL1       -0.2042
     38 C         141.8321  138.4119  164.7622 C.ar    1  UNL1        0.0277
@<TRIPOS>BOND
     1    11    12    1
     2    12    13   ar
     3    13    14   ar
     4    14    15   ar
     5    15    16   ar
     6    15    17    1
     7    17    18    1
     8    18    19    1
     9    19     7    1
    10     7     8    2
    11     7     9   am
    12     9     1    1
    13     1     2   ar
    14     2     3   ar
    15     3     4   ar
    16     4    22    1
    17    23    22    1
    18    23    24    1
    19    24    25    1
    20    26    25    1
    21    26    29    1
    22    29    30    1
    23    29    32    1
    24    32    33   ar
    25    33    34   ar
    26    34    35   ar
    27    35    36   ar
    28    36    37    1
    29    36    38   ar
    30    26    27    1
    31     4     5   ar
    32     5     6   ar
    33    16    12   ar
    34     6     1   ar
    35    19    14    1
    36    27    23    1
    37    38    32   ar
    38    11    20    1
    39    11    21    1
    40     9    10    1
    41    30    31    1
    42    27    28    1
@<TRIPOS>MOLECULE
*****
 38 42 0 0 0
SMALL
GASTEIGER

@<TRIPOS>ATOM
      1 C         141.7357  139.7471  163.4817 C.ar    1  UNL1        0.0503
      2 C         142.8221  139.0246  162.7416 C.ar    1  UNL1        0.0143
      3 C         142.9405  139.1702  161.2533 C.ar    1  UNL1       -0.0029
      4 C         141.9727  140.0383  160.5052 C.ar    1  UNL1       -0.0208
      5 C         140.8864  140.7609  161.2453 C.ar    1  UNL1       -0.0029
      6 C         140.7679  140.6153  162.7335 C.ar    1  UNL1        0.0143
      7 C         142.2429  140.6207  165.8753 C.2     1  UNL1        0.2313
      8 O         142.9871  141.7854  165.2926 O.2     1  UNL1       -0.2744
      9 N         141.6172  139.6016  164.9699 N.am    1  UNL1       -0.2836
     10 H         141.1287  138.8372  165.3523 H       1  UNL1        0.1549
     11 N         139.9853  144.3826  170.3690 N.pl3   1  UNL1       -0.3375
     12 C         140.6169  143.1334  169.8300 C.ar    1  UNL1        0.1560
     13 N         140.9230  142.8513  168.3889 N.ar    1  UNL1       -0.2287
     14 C         141.5486  141.4905  168.3056 C.ar    1  UNL1        0.0712
     15 C         141.6291  140.9316  169.6953 C.ar    1  UNL1        0.0239
     16 S         141.0534  141.9470  170.6374 S.2     1  UNL1       -0.0567
     17 C         142.2547  139.5708  169.6120 C.3     1  UNL1        0.0351
     18 C         142.5608  139.2888  168.1710 C.3     1  UNL1        0.0204
     19 C         142.1244  140.4751  167.3636 C.3     1  UNL1        0.1174
     20 H         139.7323  145.1102  169.7561 H       1  UNL1        0.1442
     21 H         139.8239  144.4749  171.3358 H       1  UNL1        0.1442
     22 C         142.0912  140.1839  159.0170 C.3     1  UNL1        0.0420
     23 C         142.0704  138.9669  158.1403 C.3     1  UNL1        0.0585
     24 C         140.8461  138.2995  157.5875 C.3     1  UNL1        0.0175
     25 C         141.2892  137.1238  156.7681 C.3     1  UNL1        0.0199
     26 C         142.7873  137.0646  156.8146 C.3     1  UNL1        0.0855
     27 N         143.2701  138.2037  157.6627 N.3     1  UNL1       -0.2971
     28 H         143.8722  138.8150  157.1111 H       1  UNL1        0.1233
     29 C         143.6509  136.0452  156.1326 C.3     1  UNL1        0.1470
     30 O         144.8673  136.4816  155.3710 O.3     1  UNL1       -0.3787
     31 H         144.9496  137.4469  155.4188 H       1  UNL1        0.2108
     32 C         143.2982  134.5895  156.2124 C.ar    1  UNL1        0.0078
     33 C         144.0059  133.6987  157.1900 C.ar    1  UNL1       -0.0018
     34 C         143.6532  132.2430  157.2697 C.ar    1  UNL1        0.0021
     35 C         142.5928  131.6779  156.3718 C.ar    1  UNL1        0.0296
     36 C         141.8851  132.5687  155.3942 C.ar    1  UNL1        0.1399
     37 F         140.8247  132.0037  154.4963 F       1  UNL1       -0.2042
     38 C         142.2378  134.0244  155.3145 C.ar    1  UNL1        0.0277
@<TRIPOS>BOND
     1    11    12    1
     2    12    13   ar
     3    13    14   ar
     4    14    15   ar
     5    15    16   ar
     6    15    17    1
     7    17    18    1
     8    18    19    1
     9    19     7    1
    10     7     8    2
    11     7     9   am
    12     9     1    1
    13     1     2   ar
    14     2     3   ar
    15     3     4   ar
    16     4    22    1
    17    23    22    1
    18    23    24    1
    19    24    25    1
    20    26    25    1
    21    26    29    1
    22    29    30    1
    23    29    32    1
    24    32    33   ar
    25    33    34   ar
    26    34    35   ar
    27    35    36   ar
    28    36    37    1
    29    36    38   ar
    30    26    27    1
    31     4     5   ar
    32     5     6   ar
    33    16    12   ar
    34     6     1   ar
    35    19    14    1
    36    27    23    1
    37    38    32   ar
    38    11    20    1
    39    11    21    1
    40     9    10    1
    41    30    31    1
    42    27    28    1
@<TRIPOS>MOLECULE
*****
 38 42 0 0 0
SMALL
GASTEIGER

@<TRIPOS>ATOM
      1 C         142.7634  137.9087  157.8482 C.ar    1  UNL1        0.0503
      2 C         142.8048  139.2417  157.1618 C.ar    1  UNL1        0.0143
      3 C         142.6063  140.4998  157.9543 C.ar    1  UNL1       -0.0029
      4 C         142.3664  140.4248  159.4330 C.ar    1  UNL1       -0.0208
      5 C         142.3250  139.0917  160.1194 C.ar    1  UNL1       -0.0029
      6 C         142.5235  137.8336  159.3269 C.ar    1  UNL1        0.0143
      7 C         141.8264  136.0782  156.2602 C.2     1  UNL1        0.2313
      8 O         140.4923  136.7640  156.2571 O.2     1  UNL1       -0.2744
      9 N         142.9619  136.6506  157.0558 N.am    1  UNL1       -0.2836
     10 H         143.8375  136.2005  157.0579 H       1  UNL1        0.1549
     11 N         143.4659  130.2323  157.8661 N.pl3   1  UNL1       -0.3375
     12 C         143.0717  131.3224  156.9141 C.ar    1  UNL1        0.1560
     13 N         142.7747  132.7467  157.2787 N.ar    1  UNL1       -0.2287
     14 C         142.4247  133.4841  156.0203 C.ar    1  UNL1        0.0712
     15 C         142.5053  132.5155  154.8778 C.ar    1  UNL1        0.0239
     16 S         142.9052  131.1795  155.4302 S.2     1  UNL1       -0.0567
     17 C         142.1553  133.2529  153.6193 C.3     1  UNL1        0.0351
     18 C         141.8584  134.6772  153.9841 C.3     1  UNL1        0.0204
     19 C         142.0249  134.8202  155.4679 C.3     1  UNL1        0.1174
     20 H         143.5495  130.4252  158.8279 H       1  UNL1        0.1442
     21 H         143.6411  129.3240  157.5292 H       1  UNL1        0.1442
     22 C         142.1679  141.6828  160.2254 C.3     1  UNL1        0.0420
     23 C         140.8452  141.9579  160.8771 C.3     1  UNL1        0.0585
     24 C         139.8590  143.0088  160.4611 C.3     1  UNL1        0.0175
     25 C         138.6807  142.9308  161.3861 C.3     1  UNL1        0.0199
     26 C         138.9387  141.8317  162.3738 C.3     1  UNL1        0.0855
     27 N         140.2764  141.2304  162.0592 N.3     1  UNL1       -0.2971
     28 H         140.1675  140.2409  161.8370 H       1  UNL1        0.1233
     29 C         138.0202  141.4083  163.4815 C.3     1  UNL1        0.1470
     30 O         136.5395  141.3531  163.2482 O.3     1  UNL1       -0.3787
     31 H         136.3457  141.6200  162.3360 H       1  UNL1        0.2108
     32 C         138.5825  141.0399  164.8224 C.ar    1  UNL1        0.0078
     33 C         138.2198  139.7282  165.4531 C.ar    1  UNL1       -0.0018
     34 C         138.7820  139.3598  166.7941 C.ar    1  UNL1        0.0021
     35 C         139.7070  140.3032  167.5044 C.ar    1  UNL1        0.0296
     36 C         140.0696  141.6149  166.8737 C.ar    1  UNL1        0.1399
     37 F         140.9945  142.5583  167.5840 F       1  UNL1       -0.2042
     38 C         139.5074  141.9833  165.5327 C.ar    1  UNL1        0.0277
@<TRIPOS>BOND
     1    11    12    1
     2    12    13   ar
     3    13    14   ar
     4    14    15   ar
     5    15    16   ar
     6    15    17    1
     7    17    18    1
     8    18    19    1
     9    19     7    1
    10     7     8    2
    11     7     9   am
    12     9     1    1
    13     1     2   ar
    14     2     3   ar
    15     3     4   ar
    16     4    22    1
    17    23    22    1
    18    23    24    1
    19    24    25    1
    20    26    25    1
    21    26    29    1
    22    29    30    1
    23    29    32    1
    24    32    33   ar
    25    33    34   ar
    26    34    35   ar
    27    35    36   ar
    28    36    37    1
    29    36    38   ar
    30    26    27    1
    31     4     5   ar
    32     5     6   ar
    33    16    12   ar
    34     6     1   ar
    35    19    14    1
    36    27    23    1
    37    38    32   ar
    38    11    20    1
    39    11    21    1
    40     9    10    1
    41    30    31    1
    42    27    28    1
@<TRIPOS>MOLECULE
*****
 38 42 0 0 0
SMALL
GASTEIGER

@<TRIPOS>ATOM
      1 C         143.7082  140.0055  159.0130 C.ar    1  UNL1        0.0503
      2 C         143.4840  141.4362  158.6219 C.ar    1  UNL1        0.0143
      3 C         143.5377  142.5153  159.6625 C.ar    1  UNL1       -0.0029
      4 C         143.8155  142.1638  161.0940 C.ar    1  UNL1       -0.0208
      5 C         144.0397  140.7331  161.4850 C.ar    1  UNL1       -0.0029
      6 C         143.9860  139.6540  160.4445 C.ar    1  UNL1        0.0143
      7 C         142.3612  138.2214  157.6890 C.2     1  UNL1        0.2313
      8 O         141.1215  138.5957  158.4460 O.2     1  UNL1       -0.2744
      9 N         143.6545  138.9264  157.9725 N.am    1  UNL1       -0.2836
     10 H         144.4682  138.6807  157.4756 H       1  UNL1        0.1549
     11 N         143.9742  132.1521  157.7426 N.pl3   1  UNL1       -0.3375
     12 C         143.4436  133.4140  157.1293 C.ar    1  UNL1        0.1560
     13 N         143.3168  134.7420  157.8151 N.ar    1  UNL1       -0.2287
     14 C         142.7415  135.7182  156.8322 C.ar    1  UNL1        0.0712
     15 C         142.5127  134.9935  155.5390 C.ar    1  UNL1        0.0239
     16 S         142.9466  133.5694  155.7226 S.2     1  UNL1       -0.0567
     17 C         141.9374  135.9697  154.5561 C.3     1  UNL1        0.0351
     18 C         141.8106  137.2977  155.2419 C.3     1  UNL1        0.0204
     19 C         142.3076  137.1423  156.6486 C.3     1  UNL1        0.1174
     20 H         144.2784  132.1499  158.6789 H       1  UNL1        0.1442
     21 H         144.0183  131.3260  157.2087 H       1  UNL1        0.1442
     22 C         143.8691  143.2429  162.1344 C.3     1  UNL1        0.0420
     23 C         142.7997  143.3278  163.1828 C.3     1  UNL1        0.0585
     24 C         141.7786  144.4187  163.3143 C.3     1  UNL1        0.0175
     25 C         140.9114  144.1018  164.4965 C.3     1  UNL1        0.0199
     26 C         141.3966  142.8151  165.0956 C.3     1  UNL1        0.0855
     27 N         142.5636  142.3367  164.2837 N.3     1  UNL1       -0.2971
     28 H         142.3563  141.4206  163.8861 H       1  UNL1        0.1233
     29 C         140.8165  142.1275  166.2959 C.3     1  UNL1        0.1470
     30 O         139.7691  141.0682  166.1202 O.3     1  UNL1       -0.3787
     31 H         139.5831  140.9510  165.1754 H       1  UNL1        0.2108
     32 C         141.2838  142.4992  167.6719 C.ar    1  UNL1        0.0078
     33 C         140.3478  143.1858  168.6219 C.ar    1  UNL1       -0.0018
     34 C         140.8151  143.5575  169.9979 C.ar    1  UNL1        0.0021
     35 C         142.2184  143.2427  170.4240 C.ar    1  UNL1        0.0296
     36 C         143.1544  142.5561  169.4740 C.ar    1  UNL1        0.1399
     37 F         144.5577  142.2412  169.9000 F       1  UNL1       -0.2042
     38 C         142.6871  142.1844  168.0980 C.ar    1  UNL1        0.0277
@<TRIPOS>BOND
     1    11    12    1
     2    12    13   ar
     3    13    14   ar
     4    14    15   ar
     5    15    16   ar
     6    15    17    1
     7    17    18    1
     8    18    19    1
     9    19     7    1
    10     7     8    2
    11     7     9   am
    12     9     1    1
    13     1     2   ar
    14     2     3   ar
    15     3     4   ar
    16     4    22    1
    17    23    22    1
    18    23    24    1
    19    24    25    1
    20    26    25    1
    21    26    29    1
    22    29    30    1
    23    29    32    1
    24    32    33   ar
    25    33    34   ar
    26    34    35   ar
    27    35    36   ar
    28    36    37    1
    29    36    38   ar
    30    26    27    1
    31     4     5   ar
    32     5     6   ar
    33    16    12   ar
    34     6     1   ar
    35    19    14    1
    36    27    23    1
    37    38    32   ar
    38    11    20    1
    39    11    21    1
    40     9    10    1
    41    30    31    1
    42    27    28    1
@<TRIPOS>MOLECULE
*****
 38 42 0 0 0
SMALL
GASTEIGER

@<TRIPOS>ATOM
      1 C         139.9074  145.0602  161.9784 C.ar    1  UNL1        0.0503
      2 C         138.6323  144.4540  162.4852 C.ar    1  UNL1        0.0143
      3 C         138.5420  143.9741  163.9035 C.ar    1  UNL1       -0.0029
      4 C         139.7265  144.1004  164.8150 C.ar    1  UNL1       -0.0208
      5 C         141.0015  144.7066  164.3082 C.ar    1  UNL1       -0.0029
      6 C         141.0919  145.1865  162.8899 C.ar    1  UNL1        0.0143
      7 C         140.6872  144.6997  159.5265 C.2     1  UNL1        0.2313
      8 O         141.2861  143.3794  159.9111 O.2     1  UNL1       -0.2744
      9 N         139.9978  145.5402  160.5601 N.am    1  UNL1       -0.2836
     10 H         139.6048  146.4068  160.3077 H       1  UNL1        0.1549
     11 N         144.1734  142.9006  154.6222 N.pl3   1  UNL1       -0.3375
     12 C         143.1450  143.7334  155.3286 C.ar    1  UNL1        0.1560
     13 N         142.7338  143.5957  156.7646 N.ar    1  UNL1       -0.2287
     14 C         141.6819  144.6272  157.0465 C.ar    1  UNL1        0.0712
     15 C         141.4429  145.4024  155.7848 C.ar    1  UNL1        0.0239
     16 S         142.3471  144.8499  154.7231 S.2     1  UNL1       -0.0567
     17 C         140.3910  146.4339  156.0667 C.3     1  UNL1        0.0351
     18 C         139.9799  146.2962  157.5026 C.3     1  UNL1        0.0204
     19 C         140.7777  145.1796  158.1082 C.3     1  UNL1        0.1174
     20 H         144.6467  142.1868  155.1076 H       1  UNL1        0.1442
     21 H         144.3750  143.0680  153.6733 H       1  UNL1        0.1442
     22 C         139.6360  143.6205  166.2333 C.3     1  UNL1        0.0420
     23 C         140.5614  142.5459  166.7219 C.3     1  UNL1        0.0585
     24 C         141.2011  142.4823  168.0772 C.3     1  UNL1        0.0175
     25 C         142.0446  141.2432  168.1339 C.3     1  UNL1        0.0199
     26 C         141.9263  140.5411  166.8137 C.3     1  UNL1        0.0855
     27 N         141.0097  141.3461  165.9410 N.3     1  UNL1       -0.2971
     28 H         140.2011  140.7835  165.6764 H       1  UNL1        0.1233
     29 C         142.6055  139.2590  166.4331 C.3     1  UNL1        0.1470
     30 O         143.4542  138.5336  167.4349 O.3     1  UNL1       -0.3787
     31 H         143.4578  139.0246  168.2714 H       1  UNL1        0.2108
     32 C         142.4359  138.7022  165.0506 C.ar    1  UNL1        0.0078
     33 C         141.2868  137.7873  164.7462 C.ar    1  UNL1       -0.0018
     34 C         141.1173  137.2305  163.3638 C.ar    1  UNL1        0.0021
     35 C         142.0967  137.5885  162.2856 C.ar    1  UNL1        0.0296
     36 C         143.2458  138.5034  162.5900 C.ar    1  UNL1        0.1399
     37 F         144.2253  138.8614  161.5119 F       1  UNL1       -0.2042
     38 C         143.4154  139.0602  163.9724 C.ar    1  UNL1        0.0277
@<TRIPOS>BOND
     1    11    12    1
     2    12    13   ar
     3    13    14   ar
     4    14    15   ar
     5    15    16   ar
     6    15    17    1
     7    17    18    1
     8    18    19    1
     9    19     7    1
    10     7     8    2
    11     7     9   am
    12     9     1    1
    13     1     2   ar
    14     2     3   ar
    15     3     4   ar
    16     4    22    1
    17    23    22    1
    18    23    24    1
    19    24    25    1
    20    26    25    1
    21    26    29    1
    22    29    30    1
    23    29    32    1
    24    32    33   ar
    25    33    34   ar
    26    34    35   ar
    27    35    36   ar
    28    36    37    1
    29    36    38   ar
    30    26    27    1
    31     4     5   ar
    32     5     6   ar
    33    16    12   ar
    34     6     1   ar
    35    19    14    1
    36    27    23    1
    37    38    32   ar
    38    11    20    1
    39    11    21    1
    40     9    10    1
    41    30    31    1
    42    27    28    1
