@<TRIPOS>MOLECULE
*****
 26 29 0 0 0
SMALL
GASTEIGER

@<TRIPOS>ATOM
      1 N         139.1238  138.9894  165.2734 N.ar    1  UNL1       -0.2143
      2 N         140.0596  140.1127  164.9383 N.ar    1  UNL1       -0.1708
      3 C         140.4868  141.0765  166.0054 C.ar    1  UNL1        0.0846
      4 C         139.9781  140.9170  167.4075 C.ar    1  UNL1        0.0380
      5 C         140.4053  141.8808  168.4745 C.ar    1  UNL1        0.0045
      6 C         139.8966  141.7212  169.8765 C.ar    1  UNL1        0.0207
      7 C         138.9608  140.5979  170.2115 C.ar    1  UNL1        0.0990
      8 N         138.5336  139.6341  169.1445 N.ar    1  UNL1       -0.2389
      9 C         139.0423  139.7936  167.7425 C.ar    1  UNL1        0.1398
     10 C         138.6151  138.8298  166.6754 C.ar    1  UNL1        0.2941
     11 O         137.6792  137.7065  167.0104 O.2     1  UNL1       -0.2638
     12 C         138.6966  138.0255  164.2063 C.3     1  UNL1        0.1466
     13 C         141.4403  137.5921  162.4935 C.3     1  UNL1        0.0897
     14 N         140.1582  138.1711  161.9730 N.3     1  UNL1       -0.2709
     15 C         139.9121  138.6526  160.5739 C.3     1  UNL1        0.0722
     16 C         138.4989  139.1494  160.4964 C.3     1  UNL1        0.0188
     17 C         137.8715  138.9749  161.8477 C.3     1  UNL1        0.0194
     18 C         138.8970  138.3704  162.7603 C.3     1  UNL1        0.0822
     19 C         141.4227  142.1998  165.6703 C.3     1  UNL1        0.0739
     20 C         140.9994  143.2656  164.7035 C.ar    1  UNL1       -0.0161
     21 C         139.6001  143.8044  164.7464 C.ar    1  UNL1       -0.0030
     22 C         139.1768  144.8702  163.7796 C.ar    1  UNL1        0.0111
     23 C         140.1527  145.3973  162.7697 C.ar    1  UNL1        0.0577
     24 CL        139.7294  146.4631  161.8029 Cl      1  UNL1       -0.0822
     25 C         141.5520  144.8586  162.7268 C.ar    1  UNL1        0.0111
     26 C         141.9753  143.7927  163.6937 C.ar    1  UNL1       -0.0030
@<TRIPOS>BOND
     1    13    14    1
     2    14    15    1
     3    15    16    1
     4    16    17    1
     5    17    18    1
     6    18    12    1
     7    12     1    1
     8     1     2   ar
     9     2     3   ar
    10     3    19    1
    11    19    20    1
    12    20    21   ar
    13    21    22   ar
    14    22    23   ar
    15    23    24    1
    16    23    25   ar
    17    25    26   ar
    18     3     4   ar
    19     4     5   ar
    20     5     6   ar
    21     6     7   ar
    22     7     8   ar
    23     8     9   ar
    24     9    10   ar
    25    10    11    2
    26    18    14    1
    27    10     1   ar
    28    26    20   ar
    29     9     4   ar
@<TRIPOS>MOLECULE
*****
 26 29 0 0 0
SMALL
GASTEIGER

@<TRIPOS>ATOM
      1 N         142.6618  141.2285  166.0157 N.ar    1  UNL1       -0.2143
      2 N         141.6104  140.2910  165.5001 N.ar    1  UNL1       -0.1708
      3 C         140.4700  139.8833  166.3850 C.ar    1  UNL1        0.0846
      4 C         140.3809  140.4131  167.7856 C.ar    1  UNL1        0.0380
      5 C         139.2404  140.0054  168.6705 C.ar    1  UNL1        0.0045
      6 C         139.1513  140.5351  170.0710 C.ar    1  UNL1        0.0207
      7 C         140.2027  141.4726  170.5865 C.ar    1  UNL1        0.0990
      8 N         141.3431  141.8803  169.7016 N.ar    1  UNL1       -0.2389
      9 C         141.4322  141.3506  168.3011 C.ar    1  UNL1        0.1398
     10 C         142.5727  141.7583  167.4161 C.ar    1  UNL1        0.2941
     11 O         143.6240  142.6957  167.9317 O.2     1  UNL1       -0.2638
     12 C         143.8023  141.6362  165.1307 C.3     1  UNL1        0.1466
     13 C         142.5498  141.6049  162.1174 C.3     1  UNL1        0.0897
     14 N         143.0846  142.8072  162.8375 N.3     1  UNL1       -0.2709
     15 C         143.1375  144.2061  162.2990 C.3     1  UNL1        0.0722
     16 C         143.7460  145.0852  163.3512 C.3     1  UNL1        0.0188
     17 C         144.0691  144.2294  164.5400 C.3     1  UNL1        0.0194
     18 C         143.6603  142.8215  164.2225 C.3     1  UNL1        0.0822
     19 C         139.4186  138.9458  165.8695 C.3     1  UNL1        0.0739
     20 C         138.8637  139.1280  164.4879 C.ar    1  UNL1       -0.0161
     21 C         138.1703  140.4065  164.1207 C.ar    1  UNL1       -0.0030
     22 C         137.6154  140.5886  162.7391 C.ar    1  UNL1        0.0111
     23 C         137.7537  139.4923  161.7247 C.ar    1  UNL1        0.0577
     24 CL        137.1987  139.6744  160.3431 Cl      1  UNL1       -0.0822
     25 C         138.4469  138.2138  162.0919 C.ar    1  UNL1        0.0111
     26 C         139.0019  138.0316  163.4736 C.ar    1  UNL1       -0.0030
@<TRIPOS>BOND
     1    13    14    1
     2    14    15    1
     3    15    16    1
     4    16    17    1
     5    17    18    1
     6    18    12    1
     7    12     1    1
     8     1     2   ar
     9     2     3   ar
    10     3    19    1
    11    19    20    1
    12    20    21   ar
    13    21    22   ar
    14    22    23   ar
    15    23    24    1
    16    23    25   ar
    17    25    26   ar
    18     3     4   ar
    19     4     5   ar
    20     5     6   ar
    21     6     7   ar
    22     7     8   ar
    23     8     9   ar
    24     9    10   ar
    25    10    11    2
    26    18    14    1
    27    10     1   ar
    28    26    20   ar
    29     9     4   ar
@<TRIPOS>MOLECULE
*****
 26 29 0 0 0
SMALL
GASTEIGER

@<TRIPOS>ATOM
      1 N         139.6158  140.2917  166.4346 N.ar    1  UNL1       -0.2143
      2 N         140.6144  140.9846  165.5555 N.ar    1  UNL1       -0.1708
      3 C         141.8004  141.6717  166.1647 C.ar    1  UNL1        0.0846
      4 C         141.9879  141.6660  167.6530 C.ar    1  UNL1        0.0380
      5 C         143.1739  142.3531  168.2622 C.ar    1  UNL1        0.0045
      6 C         143.3613  142.3474  169.7504 C.ar    1  UNL1        0.0207
      7 C         142.3627  141.6545  170.6294 C.ar    1  UNL1        0.0990
      8 N         141.1767  140.9674  170.0202 N.ar    1  UNL1       -0.2389
      9 C         140.9892  140.9731  168.5320 C.ar    1  UNL1        0.1398
     10 C         139.8032  140.2859  167.9228 C.ar    1  UNL1        0.2941
     11 O         138.8046  139.5931  168.8018 O.2     1  UNL1       -0.2638
     12 C         138.4297  139.6045  165.8253 C.3     1  UNL1        0.1466
     13 C         137.4153  141.3749  163.2785 C.3     1  UNL1        0.0897
     14 N         137.9992  139.9946  163.2162 N.3     1  UNL1       -0.2709
     15 C         138.2194  139.1858  161.9723 C.3     1  UNL1        0.0722
     16 C         138.8217  137.8721  162.3742 C.3     1  UNL1        0.0188
     17 C         138.9738  137.8691  163.8664 C.3     1  UNL1        0.0194
     18 C         138.4655  139.1809  164.3869 C.3     1  UNL1        0.0822
     19 C         142.7990  142.3646  165.2857 C.3     1  UNL1        0.0739
     20 C         142.3349  143.1303  164.0822 C.ar    1  UNL1       -0.0161
     21 C         142.7642  142.7029  162.7099 C.ar    1  UNL1       -0.0030
     22 C         142.3002  143.4687  161.5065 C.ar    1  UNL1        0.0111
     23 C         141.4068  144.6618  161.6753 C.ar    1  UNL1        0.0577
     24 CL        140.9428  145.4275  160.4719 Cl      1  UNL1       -0.0822
     25 C         140.9776  145.0891  163.0475 C.ar    1  UNL1        0.0111
     26 C         141.4416  144.3234  164.2510 C.ar    1  UNL1       -0.0030
@<TRIPOS>BOND
     1    13    14    1
     2    14    15    1
     3    15    16    1
     4    16    17    1
     5    17    18    1
     6    18    12    1
     7    12     1    1
     8     1     2   ar
     9     2     3   ar
    10     3    19    1
    11    19    20    1
    12    20    21   ar
    13    21    22   ar
    14    22    23   ar
    15    23    24    1
    16    23    25   ar
    17    25    26   ar
    18     3     4   ar
    19     4     5   ar
    20     5     6   ar
    21     6     7   ar
    22     7     8   ar
    23     8     9   ar
    24     9    10   ar
    25    10    11    2
    26    18    14    1
    27    10     1   ar
    28    26    20   ar
    29     9     4   ar
@<TRIPOS>MOLECULE
*****
 26 29 0 0 0
SMALL
GASTEIGER

@<TRIPOS>ATOM
      1 N         140.3743  140.2389  166.3347 N.ar    1  UNL1       -0.2143
      2 N         141.5633  141.0189  165.8573 N.ar    1  UNL1       -0.1708
      3 C         142.3946  141.7933  166.8366 C.ar    1  UNL1        0.0846
      4 C         142.0370  141.7878  168.2934 C.ar    1  UNL1        0.0380
      5 C         142.8683  142.5622  169.2727 C.ar    1  UNL1        0.0045
      6 C         142.5106  142.5567  170.7294 C.ar    1  UNL1        0.0207
      7 C         141.3216  141.7767  171.2068 C.ar    1  UNL1        0.0990
      8 N         140.4902  141.0023  170.2275 N.ar    1  UNL1       -0.2389
      9 C         140.8479  141.0078  168.7708 C.ar    1  UNL1        0.1398
     10 C         140.0166  140.2334  167.7914 C.ar    1  UNL1        0.2941
     11 O         138.8276  139.4534  168.2687 O.2     1  UNL1       -0.2638
     12 C         139.5430  139.4644  165.3553 C.3     1  UNL1        0.1466
     13 C         138.5886  138.2833  162.4668 C.3     1  UNL1        0.0897
     14 N         138.2759  139.6465  163.0088 N.3     1  UNL1       -0.2709
     15 C         137.4696  140.7062  162.3182 C.3     1  UNL1        0.0722
     16 C         137.4099  141.9041  163.2191 C.3     1  UNL1        0.0188
     17 C         138.1794  141.5847  164.4664 C.3     1  UNL1        0.0194
     18 C         138.7146  140.1894  164.3365 C.3     1  UNL1        0.0822
     19 C         143.5837  142.5733  166.3593 C.3     1  UNL1        0.0739
     20 C         143.9364  142.5857  164.9014 C.ar    1  UNL1       -0.0161
     21 C         143.4754  143.7146  164.0278 C.ar    1  UNL1       -0.0030
     22 C         143.8281  143.7271  162.5700 C.ar    1  UNL1        0.0111
     23 C         144.6417  142.6106  161.9856 C.ar    1  UNL1        0.0577
     24 CL        144.9944  142.6231  160.5277 Cl      1  UNL1       -0.0822
     25 C         145.1027  141.4817  162.8591 C.ar    1  UNL1        0.0111
     26 C         144.7500  141.4692  164.3170 C.ar    1  UNL1       -0.0030
@<TRIPOS>BOND
     1    13    14    1
     2    14    15    1
     3    15    16    1
     4    16    17    1
     5    17    18    1
     6    18    12    1
     7    12     1    1
     8     1     2   ar
     9     2     3   ar
    10     3    19    1
    11    19    20    1
    12    20    21   ar
    13    21    22   ar
    14    22    23   ar
    15    23    24    1
    16    23    25   ar
    17    25    26   ar
    18     3     4   ar
    19     4     5   ar
    20     5     6   ar
    21     6     7   ar
    22     7     8   ar
    23     8     9   ar
    24     9    10   ar
    25    10    11    2
    26    18    14    1
    27    10     1   ar
    28    26    20   ar
    29     9     4   ar
@<TRIPOS>MOLECULE
*****
 26 29 0 0 0
SMALL
GASTEIGER

@<TRIPOS>ATOM
      1 N         141.6614  139.0993  165.7927 N.ar    1  UNL1       -0.2143
      2 N         140.5211  139.9981  165.4160 N.ar    1  UNL1       -0.1708
      3 C         140.1921  141.1888  166.2669 C.ar    1  UNL1        0.0846
      4 C         141.0034  141.4807  167.4944 C.ar    1  UNL1        0.0380
      5 C         140.6744  142.6714  168.3452 C.ar    1  UNL1        0.0045
      6 C         141.4856  142.9632  169.5726 C.ar    1  UNL1        0.0207
      7 C         142.6259  142.0644  169.9493 C.ar    1  UNL1        0.0990
      8 N         142.9549  140.8737  169.0985 N.ar    1  UNL1       -0.2389
      9 C         142.1436  140.5818  167.8710 C.ar    1  UNL1        0.1398
     10 C         142.4726  139.3911  167.0201 C.ar    1  UNL1        0.2941
     11 O         143.6129  138.4922  167.3968 O.2     1  UNL1       -0.2638
     12 C         141.9904  137.9085  164.9418 C.3     1  UNL1        0.1466
     13 C         139.3761  137.6599  163.0045 C.3     1  UNL1        0.0897
     14 N         140.7843  137.9165  162.5564 N.3     1  UNL1       -0.2709
     15 C         141.2382  138.1039  161.1390 C.3     1  UNL1        0.0722
     16 C         142.7204  138.3340  161.1535 C.3     1  UNL1        0.0188
     17 C         143.1826  138.2888  162.5798 C.3     1  UNL1        0.0194
     18 C         141.9860  138.0308  163.4468 C.3     1  UNL1        0.0822
     19 C         139.0519  142.0877  165.8902 C.3     1  UNL1        0.0739
     20 C         139.2485  143.1546  164.8544 C.ar    1  UNL1       -0.0161
     21 C         138.1045  143.5674  163.9763 C.ar    1  UNL1       -0.0030
     22 C         138.3011  144.6343  162.9404 C.ar    1  UNL1        0.0111
     23 C         139.6416  145.2885  162.7826 C.ar    1  UNL1        0.0577
     24 CL        139.8382  146.3554  161.7468 Cl      1  UNL1       -0.0822
     25 C         140.7856  144.8758  163.6606 C.ar    1  UNL1        0.0111
     26 C         140.5890  143.8088  164.6966 C.ar    1  UNL1       -0.0030
@<TRIPOS>BOND
     1    13    14    1
     2    14    15    1
     3    15    16    1
     4    16    17    1
     5    17    18    1
     6    18    12    1
     7    12     1    1
     8     1     2   ar
     9     2     3   ar
    10     3    19    1
    11    19    20    1
    12    20    21   ar
    13    21    22   ar
    14    22    23   ar
    15    23    24    1
    16    23    25   ar
    17    25    26   ar
    18     3     4   ar
    19     4     5   ar
    20     5     6   ar
    21     6     7   ar
    22     7     8   ar
    23     8     9   ar
    24     9    10   ar
    25    10    11    2
    26    18    14    1
    27    10     1   ar
    28    26    20   ar
    29     9     4   ar
@<TRIPOS>MOLECULE
*****
 26 29 0 0 0
SMALL
GASTEIGER

@<TRIPOS>ATOM
      1 N         142.3359  139.8501  166.8019 N.ar    1  UNL1       -0.2143
      2 N         141.6620  140.9734  166.0711 N.ar    1  UNL1       -0.1708
      3 C         140.9697  142.0596  166.8397 C.ar    1  UNL1        0.0846
      4 C         140.9511  142.0224  168.3391 C.ar    1  UNL1        0.0380
      5 C         140.2587  143.1086  169.1077 C.ar    1  UNL1        0.0045
      6 C         140.2402  143.0714  170.6071 C.ar    1  UNL1        0.0207
      7 C         140.9140  141.9481  171.3379 C.ar    1  UNL1        0.0990
      8 N         141.6064  140.8620  170.5693 N.ar    1  UNL1       -0.2389
      9 C         141.6249  140.8991  169.0699 C.ar    1  UNL1        0.1398
     10 C         142.3174  139.8129  168.3012 C.ar    1  UNL1        0.2941
     11 O         142.9912  138.6896  169.0320 O.2     1  UNL1       -0.2638
     12 C         143.0283  138.7639  166.0332 C.3     1  UNL1        0.1466
     13 C         144.2073  139.3534  163.0479 C.3     1  UNL1        0.0897
     14 N         142.9877  138.5415  163.3698 N.3     1  UNL1       -0.2709
     15 C         142.0960  137.8581  162.3759 C.3     1  UNL1        0.0722
     16 C         141.0029  137.1648  163.1339 C.3     1  UNL1        0.0188
     17 C         141.2191  137.4197  164.5962 C.3     1  UNL1        0.0194
     18 C         142.4458  138.2706  164.7419 C.3     1  UNL1        0.0822
     19 C         140.2958  143.1829  166.1089 C.3     1  UNL1        0.0739
     20 C         139.7530  142.9607  164.7283 C.ar    1  UNL1       -0.0161
     21 C         138.3709  142.4069  164.5460 C.ar    1  UNL1       -0.0030
     22 C         137.8281  142.1847  163.1654 C.ar    1  UNL1        0.0111
     23 C         138.6674  142.5162  161.9672 C.ar    1  UNL1        0.0577
     24 CL        138.1246  142.2939  160.5866 Cl      1  UNL1       -0.0822
     25 C         140.0494  143.0699  162.1495 C.ar    1  UNL1        0.0111
     26 C         140.5923  143.2921  163.5301 C.ar    1  UNL1       -0.0030
@<TRIPOS>BOND
     1    13    14    1
     2    14    15    1
     3    15    16    1
     4    16    17    1
     5    17    18    1
     6    18    12    1
     7    12     1    1
     8     1     2   ar
     9     2     3   ar
    10     3    19    1
    11    19    20    1
    12    20    21   ar
    13    21    22   ar
    14    22    23   ar
    15    23    24    1
    16    23    25   ar
    17    25    26   ar
    18     3     4   ar
    19     4     5   ar
    20     5     6   ar
    21     6     7   ar
    22     7     8   ar
    23     8     9   ar
    24     9    10   ar
    25    10    11    2
    26    18    14    1
    27    10     1   ar
    28    26    20   ar
    29     9     4   ar
@<TRIPOS>MOLECULE
*****
 26 29 0 0 0
SMALL
GASTEIGER

@<TRIPOS>ATOM
      1 N         141.3378  139.6036  163.3290 N.ar    1  UNL1       -0.2143
      2 N         141.1230  140.8601  164.1195 N.ar    1  UNL1       -0.1708
      3 C         140.1455  140.8727  165.2572 C.ar    1  UNL1        0.0846
      4 C         139.3826  139.6286  165.6043 C.ar    1  UNL1        0.0380
      5 C         138.4051  139.6411  166.7419 C.ar    1  UNL1        0.0045
      6 C         137.6423  138.3971  167.0890 C.ar    1  UNL1        0.0207
      7 C         137.8571  137.1405  166.2985 C.ar    1  UNL1        0.0990
      8 N         138.8346  137.1280  165.1609 N.ar    1  UNL1       -0.2389
      9 C         139.5974  138.3720  164.8138 C.ar    1  UNL1        0.1398
     10 C         140.5750  138.3596  163.6761 C.ar    1  UNL1        0.2941
     11 O         140.7898  137.1030  162.8856 O.2     1  UNL1       -0.2638
     12 C         142.3154  139.5911  162.1913 C.3     1  UNL1        0.1466
     13 C         142.8058  141.9988  160.0438 C.3     1  UNL1        0.0897
     14 N         143.6977  141.6525  161.1990 N.3     1  UNL1       -0.2709
     15 C         144.9717  142.3520  161.5699 C.3     1  UNL1        0.0722
     16 C         145.5337  141.6777  162.7863 C.3     1  UNL1        0.0188
     17 C         144.6070  140.5614  163.1671 C.3     1  UNL1        0.0194
     18 C         143.4723  140.5458  162.1861 C.3     1  UNL1        0.0822
     19 C         139.9307  142.1292  166.0477 C.3     1  UNL1        0.0739
     20 C         140.7716  142.4066  167.2584 C.ar    1  UNL1       -0.0161
     21 C         142.2135  141.9935  167.2808 C.ar    1  UNL1       -0.0030
     22 C         143.0544  142.2708  168.4916 C.ar    1  UNL1        0.0111
     23 C         142.4535  142.9612  169.6799 C.ar    1  UNL1        0.0577
     24 CL        143.2944  143.2385  170.8907 Cl      1  UNL1       -0.0822
     25 C         141.0117  143.3743  169.6576 C.ar    1  UNL1        0.0111
     26 C         140.1707  143.0970  168.4468 C.ar    1  UNL1       -0.0030
@<TRIPOS>BOND
     1    13    14    1
     2    14    15    1
     3    15    16    1
     4    16    17    1
     5    17    18    1
     6    18    12    1
     7    12     1    1
     8     1     2   ar
     9     2     3   ar
    10     3    19    1
    11    19    20    1
    12    20    21   ar
    13    21    22   ar
    14    22    23   ar
    15    23    24    1
    16    23    25   ar
    17    25    26   ar
    18     3     4   ar
    19     4     5   ar
    20     5     6   ar
    21     6     7   ar
    22     7     8   ar
    23     8     9   ar
    24     9    10   ar
    25    10    11    2
    26    18    14    1
    27    10     1   ar
    28    26    20   ar
    29     9     4   ar
@<TRIPOS>MOLECULE
*****
 26 29 0 0 0
SMALL
GASTEIGER

@<TRIPOS>ATOM
      1 N         142.8526  142.3411  166.7038 N.ar    1  UNL1       -0.2143
      2 N         141.6812  141.7893  165.9467 N.ar    1  UNL1       -0.1708
      3 C         140.5622  141.1149  166.6837 C.ar    1  UNL1        0.0846
      4 C         140.6147  140.9923  168.1778 C.ar    1  UNL1        0.0380
      5 C         139.4958  140.3179  168.9147 C.ar    1  UNL1        0.0045
      6 C         139.5483  140.1953  170.4087 C.ar    1  UNL1        0.0207
      7 C         140.7198  140.7471  171.1658 C.ar    1  UNL1        0.0990
      8 N         141.8388  141.4214  170.4289 N.ar    1  UNL1       -0.2389
      9 C         141.7862  141.5440  168.9348 C.ar    1  UNL1        0.1398
     10 C         142.9052  142.2185  168.1978 C.ar    1  UNL1        0.2941
     11 O         144.0767  142.7702  168.9549 O.2     1  UNL1       -0.2638
     12 C         143.9716  143.0155  165.9668 C.3     1  UNL1        0.1466
     13 C         143.8389  144.7918  163.2325 C.3     1  UNL1        0.0897
     14 N         144.2922  143.3658  163.3363 N.3     1  UNL1       -0.2709
     15 C         144.7642  142.5058  162.2015 C.3     1  UNL1        0.0722
     16 C         145.1169  141.1578  162.7570 C.3     1  UNL1        0.0188
     17 C         144.8629  141.1847  164.2351 C.3     1  UNL1        0.0194
     18 C         144.3533  142.5493  164.5931 C.3     1  UNL1        0.0822
     19 C         139.3907  140.5632  165.9266 C.3     1  UNL1        0.0739
     20 C         139.0861  141.0650  164.5463 C.ar    1  UNL1       -0.0161
     21 C         138.1490  142.2212  164.3584 C.ar    1  UNL1       -0.0030
     22 C         137.8443  142.7231  162.9781 C.ar    1  UNL1        0.0111
     23 C         138.4767  142.0688  161.7856 C.ar    1  UNL1        0.0577
     24 CL        138.1720  142.5706  160.4053 Cl      1  UNL1       -0.0822
     25 C         139.4137  140.9127  161.9734 C.ar    1  UNL1        0.0111
     26 C         139.7184  140.4108  163.3538 C.ar    1  UNL1       -0.0030
@<TRIPOS>BOND
     1    13    14    1
     2    14    15    1
     3    15    16    1
     4    16    17    1
     5    17    18    1
     6    18    12    1
     7    12     1    1
     8     1     2   ar
     9     2     3   ar
    10     3    19    1
    11    19    20    1
    12    20    21   ar
    13    21    22   ar
    14    22    23   ar
    15    23    24    1
    16    23    25   ar
    17    25    26   ar
    18     3     4   ar
    19     4     5   ar
    20     5     6   ar
    21     6     7   ar
    22     7     8   ar
    23     8     9   ar
    24     9    10   ar
    25    10    11    2
    26    18    14    1
    27    10     1   ar
    28    26    20   ar
    29     9     4   ar
@<TRIPOS>MOLECULE
*****
 26 29 0 0 0
SMALL
GASTEIGER

@<TRIPOS>ATOM
      1 N         138.8798  139.4904  161.6455 N.ar    1  UNL1       -0.2143
      2 N         138.7107  139.0833  163.0793 N.ar    1  UNL1       -0.1708
      3 C         138.3711  140.1127  164.1161 C.ar    1  UNL1        0.0846
      4 C         138.2007  141.5492  163.7192 C.ar    1  UNL1        0.0380
      5 C         137.8612  142.5786  164.7560 C.ar    1  UNL1        0.0045
      6 C         137.6908  144.0150  164.3591 C.ar    1  UNL1        0.0207
      7 C         137.8599  144.4220  162.9253 C.ar    1  UNL1        0.0990
      8 N         138.1994  143.3927  161.8885 N.ar    1  UNL1       -0.2389
      9 C         138.3698  141.9563  162.2854 C.ar    1  UNL1        0.1398
     10 C         138.7093  140.9268  161.2486 C.ar    1  UNL1        0.2941
     11 O         138.8784  141.3338  159.8148 O.2     1  UNL1       -0.2638
     12 C         139.2193  138.4609  160.6086 C.3     1  UNL1        0.1466
     13 C         140.3008  138.6637  157.5364 C.3     1  UNL1        0.0897
     14 N         141.1375  138.3809  158.7488 N.3     1  UNL1       -0.2709
     15 C         142.6182  138.1416  158.7619 C.3     1  UNL1        0.0722
     16 C         143.0363  137.9005  160.1822 C.3     1  UNL1        0.0188
     17 C         141.8139  137.9908  161.0468 C.3     1  UNL1        0.0194
     18 C         140.6404  138.2877  160.1610 C.3     1  UNL1        0.0822
     19 C         138.2020  139.7056  165.5499 C.3     1  UNL1        0.0739
     20 C         139.3612  139.7978  166.4974 C.ar    1  UNL1       -0.0161
     21 C         139.1164  139.9232  167.9720 C.ar    1  UNL1       -0.0030
     22 C         140.2755  140.0154  168.9195 C.ar    1  UNL1        0.0111
     23 C         141.6795  139.9822  168.3925 C.ar    1  UNL1        0.0577
     24 CL        142.8386  140.0744  169.3401 Cl      1  UNL1       -0.0822
     25 C         141.9243  139.8568  166.9180 C.ar    1  UNL1        0.0111
     26 C         140.7652  139.7646  165.9704 C.ar    1  UNL1       -0.0030
@<TRIPOS>BOND
     1    13    14    1
     2    14    15    1
     3    15    16    1
     4    16    17    1
     5    17    18    1
     6    18    12    1
     7    12     1    1
     8     1     2   ar
     9     2     3   ar
    10     3    19    1
    11    19    20    1
    12    20    21   ar
    13    21    22   ar
    14    22    23   ar
    15    23    24    1
    16    23    25   ar
    17    25    26   ar
    18     3     4   ar
    19     4     5   ar
    20     5     6   ar
    21     6     7   ar
    22     7     8   ar
    23     8     9   ar
    24     9    10   ar
    25    10    11    2
    26    18    14    1
    27    10     1   ar
    28    26    20   ar
    29     9     4   ar
