@<TRIPOS>MOLECULE
*****
 29 32 0 0 0
SMALL
GASTEIGER

@<TRIPOS>ATOM
      1 N         143.3368  138.0286  156.9740 N.3     1  UNL1       -0.1595
      2 C         144.0332  139.1946  156.3374 C.3     1  UNL1        0.0955
      3 C         144.0645  140.5219  157.0356 C.3     1  UNL1        0.0209
      4 C         143.3995  140.6831  158.3703 C.3     1  UNL1        0.0228
      5 C         144.0538  141.9326  157.8599 C.3     1  UNL1        0.0233
      6 C         143.8407  143.0156  158.8756 C.3     1  UNL1        0.0950
      7 N         143.0547  142.4354  160.0138 N.am    1  UNL1       -0.2640
      8 C         142.6180  143.1682  161.2477 C.2     1  UNL1        0.3072
      9 O         142.9663  144.6166  161.4225 O.2     1  UNL1       -0.2523
     10 N         141.8329  142.4524  162.3067 N.am    1  UNL1       -0.2626
     11 C         141.4464  143.2765  163.4989 C.3     1  UNL1        0.0964
     12 C         140.6696  142.8590  164.7123 C.3     1  UNL1        0.0389
     13 C         140.0877  141.5142  165.0331 C.3     1  UNL1        0.0739
     14 N         140.1387  140.2549  164.2198 N.3     1  UNL1       -0.2725
     15 C         140.7843  140.0293  162.8848 C.3     1  UNL1        0.0939
     16 C         141.5382  141.0073  162.0334 C.3     1  UNL1        0.1122
     17 C         142.7820  140.9939  159.7015 C.3     1  UNL1        0.0950
     18 C         142.7031  139.5170  159.0069 C.3     1  UNL1        0.0209
     19 C         142.6717  138.1898  158.3088 C.3     1  UNL1        0.0955
     20 C         139.4535  139.0637  164.8210 C.3     1  UNL1        0.0576
     21 C         139.5510  137.5783  164.6355 C.3     1  UNL1        0.0160
     22 C         138.4845  137.3790  165.6714 C.3     1  UNL1        0.0028
     23 C         138.3871  138.8642  165.8569 C.3     1  UNL1        0.0160
     24 S         143.3054  136.7013  156.2758 S.O2    1  UNL1        0.0421
     25 O         144.6785  136.9568  155.7286 O.2     1  UNL1       -0.1573
     26 O         141.9324  136.4459  156.8231 O.2     1  UNL1       -0.1573
     27 C         143.8971  134.1721  156.2234 C.3     1  UNL1        0.0270
     28 C         143.2741  135.3741  155.5777 C.3     1  UNL1        0.1459
     29 C         142.6197  135.2488  154.2338 C.3     1  UNL1        0.0270
@<TRIPOS>BOND
     1    27    28    1
     2    28    29    1
     3    28    24    1
     4    24    25    2
     5    24    26    2
     6    24     1    1
     7     1     2    1
     8     2     3    1
     9     3     4    1
    10     4     5    1
    11     5     6    1
    12     6     7    1
    13     7     8   am
    14     8     9    2
    15     8    10   am
    16    10    11    1
    17    11    12    1
    18    12    13    1
    19    13    14    1
    20    14    20    1
    21    20    21    1
    22    21    22    1
    23    22    23    1
    24    14    15    1
    25    15    16    1
    26     7    17    1
    27     4    18    1
    28    18    19    1
    29    19     1    1
    30    17     4    1
    31    16    10    1
    32    23    20    1
@<TRIPOS>MOLECULE
*****
 29 32 0 0 0
SMALL
GASTEIGER

@<TRIPOS>ATOM
      1 N         138.1309  141.8667  157.5718 N.3     1  UNL1       -0.1595
      2 C         138.7945  143.1536  157.1801 C.3     1  UNL1        0.0955
      3 C         139.5531  143.9477  158.2018 C.3     1  UNL1        0.0209
      4 C         139.6481  143.4549  159.6153 C.3     1  UNL1        0.0228
      5 C         140.3596  144.7529  159.3727 C.3     1  UNL1        0.0233
      6 C         140.9796  145.1907  160.6665 C.3     1  UNL1        0.0950
      7 N         140.6513  144.1631  161.7088 N.am    1  UNL1       -0.2640
      8 C         141.0720  144.2016  163.1481 C.2     1  UNL1        0.3072
      9 O         141.8986  145.3449  163.6576 O.2     1  UNL1       -0.2523
     10 N         140.6662  143.0967  164.0779 N.am    1  UNL1       -0.2626
     11 C         141.1389  143.2321  165.4950 C.3     1  UNL1        0.0964
     12 C         140.9035  142.3067  166.6519 C.3     1  UNL1        0.0389
     13 C         140.1373  141.0175  166.6773 C.3     1  UNL1        0.0739
     14 N         139.4172  140.3351  165.5522 N.3     1  UNL1       -0.2725
     15 C         139.2855  140.7736  164.1237 C.3     1  UNL1        0.0939
     16 C         139.8413  142.0025  163.4677 C.3     1  UNL1        0.1122
     17 C         139.8284  143.0904  161.0592 C.3     1  UNL1        0.0950
     18 C         138.9845  142.1680  160.0071 C.3     1  UNL1        0.0209
     19 C         138.2259  141.3739  158.9854 C.3     1  UNL1        0.0955
     20 C         138.7391  139.0436  165.9017 C.3     1  UNL1        0.0576
     21 C         138.7559  137.6516  165.3430 C.3     1  UNL1        0.0160
     22 C         137.7802  137.2172  166.3962 C.3     1  UNL1        0.0028
     23 C         137.7634  138.6090  166.9549 C.3     1  UNL1        0.0160
     24 S         137.3723  141.0726  156.5501 S.O2    1  UNL1        0.0421
     25 O         136.6907  142.3246  156.0832 O.2     1  UNL1       -0.1573
     26 O         138.0540  139.8207  157.0170 O.2     1  UNL1       -0.1573
     27 C         137.3482  139.3673  154.5902 C.3     1  UNL1        0.0270
     28 C         136.6138  140.2785  155.5283 C.3     1  UNL1        0.1459
     29 C         135.1207  140.3957  155.4447 C.3     1  UNL1        0.0270
@<TRIPOS>BOND
     1    27    28    1
     2    28    29    1
     3    28    24    1
     4    24    25    2
     5    24    26    2
     6    24     1    1
     7     1     2    1
     8     2     3    1
     9     3     4    1
    10     4     5    1
    11     5     6    1
    12     6     7    1
    13     7     8   am
    14     8     9    2
    15     8    10   am
    16    10    11    1
    17    11    12    1
    18    12    13    1
    19    13    14    1
    20    14    20    1
    21    20    21    1
    22    21    22    1
    23    22    23    1
    24    14    15    1
    25    15    16    1
    26     7    17    1
    27     4    18    1
    28    18    19    1
    29    19     1    1
    30    17     4    1
    31    16    10    1
    32    23    20    1
@<TRIPOS>MOLECULE
*****
 29 32 0 0 0
SMALL
GASTEIGER

@<TRIPOS>ATOM
      1 N         143.6542  140.0551  160.9582 N.3     1  UNL1       -0.1595
      2 C         142.9498  141.1974  160.2881 C.3     1  UNL1        0.0955
      3 C         142.2756  140.9899  158.9643 C.3     1  UNL1        0.0209
      4 C         142.3057  139.6402  158.3107 C.3     1  UNL1        0.0228
      5 C         141.5663  140.6823  157.5249 C.3     1  UNL1        0.0233
      6 C         141.0561  140.0404  156.2688 C.3     1  UNL1        0.0950
      7 N         141.4802  138.6016  156.2783 N.am    1  UNL1       -0.2640
      8 C         141.1841  137.5881  155.2129 C.2     1  UNL1        0.3072
      9 O         140.3956  137.9838  153.9998 O.2     1  UNL1       -0.2523
     10 N         141.6763  136.1789  155.3607 N.am    1  UNL1       -0.2626
     11 C         141.3257  135.2461  154.2396 C.3     1  UNL1        0.0964
     12 C         141.6662  133.7928  154.0910 C.3     1  UNL1        0.0389
     13 C         142.4415  132.9135  155.0267 C.3     1  UNL1        0.0739
     14 N         143.0677  133.2702  156.3423 N.3     1  UNL1       -0.2725
     15 C         143.0733  134.5944  157.0469 C.3     1  UNL1        0.0939
     16 C         142.4541  135.8888  156.6101 C.3     1  UNL1        0.1122
     17 C         142.2525  138.3543  157.5402 C.3     1  UNL1        0.0950
     18 C         143.0101  138.4980  158.9808 C.3     1  UNL1        0.0209
     19 C         143.6844  138.7054  160.3045 C.3     1  UNL1        0.0955
     20 C         143.7829  132.1553  157.0462 C.3     1  UNL1        0.0576
     21 C         143.5103  130.6982  157.2758 C.3     1  UNL1        0.0160
     22 C         144.7944  130.5787  158.0417 C.3     1  UNL1        0.0028
     23 C         145.0670  132.0357  157.8123 C.3     1  UNL1        0.0160
     24 S         144.3284  140.2626  162.2820 S.O2    1  UNL1        0.0421
     25 O         145.1040  141.4106  161.7071 O.2     1  UNL1       -0.1573
     26 O         143.5529  139.1146  162.8569 O.2     1  UNL1       -0.1573
     27 C         145.6911  141.7695  163.9013 C.3     1  UNL1        0.0270
     28 C         145.0027  140.4700  163.6058 C.3     1  UNL1        0.1459
     29 C         144.9885  139.3780  164.6339 C.3     1  UNL1        0.0270
@<TRIPOS>BOND
     1    27    28    1
     2    28    29    1
     3    28    24    1
     4    24    25    2
     5    24    26    2
     6    24     1    1
     7     1     2    1
     8     2     3    1
     9     3     4    1
    10     4     5    1
    11     5     6    1
    12     6     7    1
    13     7     8   am
    14     8     9    2
    15     8    10   am
    16    10    11    1
    17    11    12    1
    18    12    13    1
    19    13    14    1
    20    14    20    1
    21    20    21    1
    22    21    22    1
    23    22    23    1
    24    14    15    1
    25    15    16    1
    26     7    17    1
    27     4    18    1
    28    18    19    1
    29    19     1    1
    30    17     4    1
    31    16    10    1
    32    23    20    1
@<TRIPOS>MOLECULE
*****
 29 32 0 0 0
SMALL
GASTEIGER

@<TRIPOS>ATOM
      1 N         141.7836  141.3106  165.7506 N.3     1  UNL1       -0.1595
      2 C         140.7957  142.2638  166.3552 C.3     1  UNL1        0.0955
      3 C         140.2179  143.3716  165.5253 C.3     1  UNL1        0.0209
      4 C         140.6278  143.5263  164.0908 C.3     1  UNL1        0.0228
      5 C         139.6352  144.5504  164.5554 C.3     1  UNL1        0.0233
      6 C         139.3350  145.4615  163.4023 C.3     1  UNL1        0.0950
      7 N         140.1421  145.0005  162.2249 N.am    1  UNL1       -0.2640
      8 C         140.1490  145.6258  160.8615 C.2     1  UNL1        0.3072
      9 O         139.2928  146.8253  160.5822 O.2     1  UNL1       -0.2523
     10 N         141.0120  145.0515  159.7774 N.am    1  UNL1       -0.2626
     11 C         140.9447  145.7515  158.4525 C.3     1  UNL1        0.0964
     12 C         141.6770  145.4261  157.1845 C.3     1  UNL1        0.0389
     13 C         142.6575  144.3202  156.9282 C.3     1  UNL1        0.0739
     14 N         143.1478  143.2667  157.8767 N.3     1  UNL1       -0.2725
     15 C         142.7788  143.0588  159.3157 C.3     1  UNL1        0.0939
     16 C         141.8283  143.8531  160.1615 C.3     1  UNL1        0.1122
     17 C         140.9411  143.8045  162.6505 C.3     1  UNL1        0.0950
     18 C         141.6157  142.5731  163.4862 C.3     1  UNL1        0.0209
     19 C         142.1936  141.4653  164.3161 C.3     1  UNL1        0.0955
     20 C         144.1382  142.2921  157.3115 C.3     1  UNL1        0.0576
     21 C         144.0464  140.9440  156.6601 C.3     1  UNL1        0.0160
     22 C         145.5388  140.9140  156.5121 C.3     1  UNL1        0.0028
     23 C         145.6306  142.2620  157.1634 C.3     1  UNL1        0.0160
     24 S         142.3615  140.2028  166.5806 S.O2    1  UNL1        0.0421
     25 O         141.2726  140.3942  167.5943 O.2     1  UNL1       -0.1573
     26 O         143.4504  140.0114  165.5669 O.2     1  UNL1       -0.1573
     27 C         142.7064  139.0679  168.8920 C.3     1  UNL1        0.0270
     28 C         142.9394  139.0950  167.4105 C.3     1  UNL1        0.1459
     29 C         143.7502  138.0143  166.7589 C.3     1  UNL1        0.0270
@<TRIPOS>BOND
     1    27    28    1
     2    28    29    1
     3    28    24    1
     4    24    25    2
     5    24    26    2
     6    24     1    1
     7     1     2    1
     8     2     3    1
     9     3     4    1
    10     4     5    1
    11     5     6    1
    12     6     7    1
    13     7     8   am
    14     8     9    2
    15     8    10   am
    16    10    11    1
    17    11    12    1
    18    12    13    1
    19    13    14    1
    20    14    20    1
    21    20    21    1
    22    21    22    1
    23    22    23    1
    24    14    15    1
    25    15    16    1
    26     7    17    1
    27     4    18    1
    28    18    19    1
    29    19     1    1
    30    17     4    1
    31    16    10    1
    32    23    20    1
@<TRIPOS>MOLECULE
*****
 29 32 0 0 0
SMALL
GASTEIGER

@<TRIPOS>ATOM
      1 N         138.7300  139.2742  161.6625 N.3     1  UNL1       -0.1595
      2 C         137.9359  140.3936  161.0573 C.3     1  UNL1        0.0955
      3 C         137.9570  140.6112  159.5733 C.3     1  UNL1        0.0209
      4 C         138.7723  139.7095  158.6946 C.3     1  UNL1        0.0228
      5 C         138.0330  140.7815  157.9500 C.3     1  UNL1        0.0233
      6 C         138.3402  140.6279  156.4899 C.3     1  UNL1        0.0950
      7 N         139.2694  139.4610  156.3320 N.am    1  UNL1       -0.2640
      8 C         139.8326  138.9512  155.0386 C.2     1  UNL1        0.3072
      9 O         139.4740  139.6246  153.7472 O.2     1  UNL1       -0.2523
     10 N         140.7545  137.7679  155.0367 N.am    1  UNL1       -0.2626
     11 C         141.2609  137.3397  153.6913 C.3     1  UNL1        0.0964
     12 C         142.1860  136.2071  153.3573 C.3     1  UNL1        0.0389
     13 C         142.8331  135.2231  154.2863 C.3     1  UNL1        0.0739
     14 N         142.7150  135.1286  155.7786 N.3     1  UNL1       -0.2725
     15 C         141.9205  135.9948  156.7106 C.3     1  UNL1        0.0939
     16 C         141.0481  137.1694  156.3804 C.3     1  UNL1        0.1122
     17 C         139.5364  138.8934  157.6945 C.3     1  UNL1        0.0950
     18 C         139.5664  138.5902  159.2998 C.3     1  UNL1        0.0209
     19 C         139.5453  138.3725  160.7838 C.3     1  UNL1        0.0955
     20 C         143.4943  134.0216  156.4244 C.3     1  UNL1        0.0576
     21 C         143.9232  133.7040  157.8263 C.3     1  UNL1        0.0160
     22 C         144.5965  132.4559  157.3376 C.3     1  UNL1        0.0028
     23 C         144.1677  132.7734  155.9357 C.3     1  UNL1        0.0160
     24 S         138.7089  139.0566  163.1465 S.O2    1  UNL1        0.0421
     25 O         139.6075  137.8665  162.9847 O.2     1  UNL1       -0.1573
     26 O         137.8104  140.2467  163.3083 O.2     1  UNL1       -0.1573
     27 C         138.4335  139.9930  165.5542 C.3     1  UNL1        0.0270
     28 C         138.6878  138.8389  164.6305 C.3     1  UNL1        0.1459
     29 C         138.9210  137.4672  165.1907 C.3     1  UNL1        0.0270
@<TRIPOS>BOND
     1    27    28    1
     2    28    29    1
     3    28    24    1
     4    24    25    2
     5    24    26    2
     6    24     1    1
     7     1     2    1
     8     2     3    1
     9     3     4    1
    10     4     5    1
    11     5     6    1
    12     6     7    1
    13     7     8   am
    14     8     9    2
    15     8    10   am
    16    10    11    1
    17    11    12    1
    18    12    13    1
    19    13    14    1
    20    14    20    1
    21    20    21    1
    22    21    22    1
    23    22    23    1
    24    14    15    1
    25    15    16    1
    26     7    17    1
    27     4    18    1
    28    18    19    1
    29    19     1    1
    30    17     4    1
    31    16    10    1
    32    23    20    1
@<TRIPOS>MOLECULE
*****
 29 32 0 0 0
SMALL
GASTEIGER

@<TRIPOS>ATOM
      1 N         143.8417  142.3201  157.4811 N.3     1  UNL1       -0.1595
      2 C         143.0830  143.5073  156.9667 C.3     1  UNL1        0.0955
      3 C         142.1497  144.2519  157.8748 C.3     1  UNL1        0.0209
      4 C         141.9752  143.8092  159.2973 C.3     1  UNL1        0.0228
      5 C         141.1537  145.0082  158.9263 C.3     1  UNL1        0.0233
      6 C         140.3703  145.4255  160.1355 C.3     1  UNL1        0.0950
      7 N         140.7077  144.4845  161.2538 N.am    1  UNL1       -0.2640
      8 C         140.1509  144.5337  162.6458 C.2     1  UNL1        0.3072
      9 O         139.1611  145.5966  163.0205 O.2     1  UNL1       -0.2523
     10 N         140.5840  143.5200  163.6631 N.am    1  UNL1       -0.2626
     11 C         139.9674  143.6587  165.0234 C.3     1  UNL1        0.0964
     12 C         140.1909  142.8132  166.2422 C.3     1  UNL1        0.0389
     13 C         141.0862  141.6203  166.4015 C.3     1  UNL1        0.0739
     14 N         141.9791  140.9782  165.3815 N.3     1  UNL1       -0.2725
     15 C         142.1972  141.3704  163.9502 C.3     1  UNL1        0.0939
     16 C         141.5764  142.5016  163.1855 C.3     1  UNL1        0.1122
     17 C         141.6995  143.4856  160.7358 C.3     1  UNL1        0.0950
     18 C         142.7340  142.6220  159.8117 C.3     1  UNL1        0.0209
     19 C         143.6672  141.8774  158.9036 C.3     1  UNL1        0.0955
     20 C         142.7567  139.7863  165.8555 C.3     1  UNL1        0.0576
     21 C         142.8962  139.0618  167.1615 C.3     1  UNL1        0.0160
     22 C         143.8564  138.1007  166.5257 C.3     1  UNL1        0.0028
     23 C         143.7169  138.8251  165.2198 C.3     1  UNL1        0.0160
     24 S         144.7750  141.5755  156.5730 S.O2    1  UNL1        0.0421
     25 O         144.8801  140.4732  157.5849 O.2     1  UNL1       -0.1573
     26 O         144.6699  142.6779  155.5612 O.2     1  UNL1       -0.1573
     27 C         145.3008  139.5049  155.0945 C.3     1  UNL1        0.0270
     28 C         145.7083  140.8310  155.6650 C.3     1  UNL1        0.1459
     29 C         147.0491  141.4124  155.3274 C.3     1  UNL1        0.0270
@<TRIPOS>BOND
     1    27    28    1
     2    28    29    1
     3    28    24    1
     4    24    25    2
     5    24    26    2
     6    24     1    1
     7     1     2    1
     8     2     3    1
     9     3     4    1
    10     4     5    1
    11     5     6    1
    12     6     7    1
    13     7     8   am
    14     8     9    2
    15     8    10   am
    16    10    11    1
    17    11    12    1
    18    12    13    1
    19    13    14    1
    20    14    20    1
    21    20    21    1
    22    21    22    1
    23    22    23    1
    24    14    15    1
    25    15    16    1
    26     7    17    1
    27     4    18    1
    28    18    19    1
    29    19     1    1
    30    17     4    1
    31    16    10    1
    32    23    20    1
@<TRIPOS>MOLECULE
*****
 29 32 0 0 0
SMALL
GASTEIGER

@<TRIPOS>ATOM
      1 N         141.9977  138.4047  156.9547 N.3     1  UNL1       -0.1595
      2 C         142.1793  139.6221  156.0974 C.3     1  UNL1        0.0955
      3 C         141.7729  140.9705  156.6139 C.3     1  UNL1        0.0209
      4 C         141.1850  141.1015  157.9876 C.3     1  UNL1        0.0228
      5 C         141.3056  142.4015  157.2491 C.3     1  UNL1        0.0233
      6 C         140.7819  143.4901  158.1383 C.3     1  UNL1        0.0950
      7 N         140.3376  142.8629  159.4264 N.am    1  UNL1       -0.2640
      8 C         139.7477  143.5851  160.6014 C.2     1  UNL1        0.3072
      9 O         139.5572  145.0720  160.5493 O.2     1  UNL1       -0.2523
     10 N         139.3484  142.8203  161.8285 N.am    1  UNL1       -0.2626
     11 C         138.7692  143.6376  162.9449 C.3     1  UNL1        0.0964
     12 C         138.2796  143.1759  164.2855 C.3     1  UNL1        0.0389
     13 C         138.2483  141.7828  164.8406 C.3     1  UNL1        0.0739
     14 N         138.6988  140.5073  164.1923 N.3     1  UNL1       -0.2725
     15 C         139.2920  140.3100  162.8288 C.3     1  UNL1        0.0939
     16 C         139.5810  141.3393  161.7768 C.3     1  UNL1        0.1122
     17 C         140.5868  141.3867  159.3333 C.3     1  UNL1        0.0950
     18 C         141.0035  139.8841  158.8449 C.3     1  UNL1        0.0209
     19 C         141.4098  138.5357  158.3284 C.3     1  UNL1        0.0955
     20 C         138.5345  139.2649  165.0166 C.3     1  UNL1        0.0576
     21 C         138.8691  137.8149  164.8280 C.3     1  UNL1        0.0160
     22 C         138.3021  137.5079  166.1823 C.3     1  UNL1        0.0028
     23 C         137.9675  138.9578  166.3709 C.3     1  UNL1        0.0160
     24 S         142.4040  137.0563  156.4383 S.O2    1  UNL1        0.0421
     25 O         143.8413  137.4855  156.4487 O.2     1  UNL1       -0.1573
     26 O         140.9668  136.6272  156.4278 O.2     1  UNL1       -0.1573
     27 C         142.4482  135.2996  154.5247 C.3     1  UNL1        0.0270
     28 C         142.8104  135.7079  155.9218 C.3     1  UNL1        0.1459
     29 C         143.5789  134.7679  156.8025 C.3     1  UNL1        0.0270
@<TRIPOS>BOND
     1    27    28    1
     2    28    29    1
     3    28    24    1
     4    24    25    2
     5    24    26    2
     6    24     1    1
     7     1     2    1
     8     2     3    1
     9     3     4    1
    10     4     5    1
    11     5     6    1
    12     6     7    1
    13     7     8   am
    14     8     9    2
    15     8    10   am
    16    10    11    1
    17    11    12    1
    18    12    13    1
    19    13    14    1
    20    14    20    1
    21    20    21    1
    22    21    22    1
    23    22    23    1
    24    14    15    1
    25    15    16    1
    26     7    17    1
    27     4    18    1
    28    18    19    1
    29    19     1    1
    30    17     4    1
    31    16    10    1
    32    23    20    1
@<TRIPOS>MOLECULE
*****
 29 32 0 0 0
SMALL
GASTEIGER

@<TRIPOS>ATOM
      1 N         137.1294  140.2898  156.0794 N.3     1  UNL1       -0.1595
      2 C         138.0762  139.4406  155.2841 C.3     1  UNL1        0.0955
      3 C         139.4344  139.1167  155.8322 C.3     1  UNL1        0.0209
      4 C         139.8458  139.6420  157.1756 C.3     1  UNL1        0.0228
      5 C         140.8942  138.8096  156.4989 C.3     1  UNL1        0.0233
      6 C         142.0904  138.7468  157.4017 C.3     1  UNL1        0.0950
      7 N         141.7813  139.5404  158.6365 N.am    1  UNL1       -0.2640
      8 C         142.6984  139.7448  159.8058 C.2     1  UNL1        0.3072
      9 O         144.0648  139.1262  159.8043 O.2     1  UNL1       -0.2523
     10 N         142.2490  140.5679  160.9765 N.am    1  UNL1       -0.2626
     11 C         143.2418  140.7096  162.0919 C.3     1  UNL1        0.0964
     12 C         143.0971  141.4588  163.3833 C.3     1  UNL1        0.0389
     13 C         141.9238  142.2514  163.8782 C.3     1  UNL1        0.0739
     14 N         140.6053  142.4906  163.2040 N.3     1  UNL1       -0.2725
     15 C         140.1347  141.9961  161.8683 C.3     1  UNL1        0.0939
     16 C         140.8661  141.1405  160.8770 C.3     1  UNL1        0.1122
     17 C         140.3940  140.0936  158.4968 C.3     1  UNL1        0.0950
     18 C         138.8990  140.4912  157.9709 C.3     1  UNL1        0.0209
     19 C         137.5408  140.8151  157.4228 C.3     1  UNL1        0.0955
     20 C         139.6284  143.3359  163.9663 C.3     1  UNL1        0.0576
     21 C         139.6593  144.7081  164.5714 C.3     1  UNL1        0.0160
     22 C         138.2468  144.5313  165.0443 C.3     1  UNL1        0.0028
     23 C         138.2159  143.1592  164.4392 C.3     1  UNL1        0.0160
     24 S         135.7712  140.6136  155.5312 S.O2    1  UNL1        0.0421
     25 O         136.3925  141.0051  154.2232 O.2     1  UNL1       -0.1573
     26 O         135.1500  140.2222  156.8392 O.2     1  UNL1       -0.1573
     27 C         133.1965  140.7659  155.8436 C.3     1  UNL1        0.0270
     28 C         134.4131  140.9375  154.9831 C.3     1  UNL1        0.1459
     29 C         134.2714  141.4330  153.5744 C.3     1  UNL1        0.0270
@<TRIPOS>BOND
     1    27    28    1
     2    28    29    1
     3    28    24    1
     4    24    25    2
     5    24    26    2
     6    24     1    1
     7     1     2    1
     8     2     3    1
     9     3     4    1
    10     4     5    1
    11     5     6    1
    12     6     7    1
    13     7     8   am
    14     8     9    2
    15     8    10   am
    16    10    11    1
    17    11    12    1
    18    12    13    1
    19    13    14    1
    20    14    20    1
    21    20    21    1
    22    21    22    1
    23    22    23    1
    24    14    15    1
    25    15    16    1
    26     7    17    1
    27     4    18    1
    28    18    19    1
    29    19     1    1
    30    17     4    1
    31    16    10    1
    32    23    20    1
@<TRIPOS>MOLECULE
*****
 29 32 0 0 0
SMALL
GASTEIGER

@<TRIPOS>ATOM
      1 N         143.0438  141.2060  156.7404 N.3     1  UNL1       -0.1595
      2 C         143.1005  142.6076  156.2092 C.3     1  UNL1        0.0955
      3 C         142.4497  143.7248  156.9697 C.3     1  UNL1        0.0209
      4 C         141.7422  143.4403  158.2614 C.3     1  UNL1        0.0228
      5 C         141.7166  144.8845  157.8570 C.3     1  UNL1        0.0233
      6 C         140.9613  145.6462  158.9056 C.3     1  UNL1        0.0950
      7 N         140.5202  144.6727  159.9581 N.am    1  UNL1       -0.2640
      8 C         139.7344  145.0043  161.1920 C.2     1  UNL1        0.3072
      9 O         139.3193  146.4208  161.4587 O.2     1  UNL1       -0.2523
     10 N         139.3636  143.9193  162.1592 N.am    1  UNL1       -0.2626
     11 C         138.5781  144.3579  163.3594 C.3     1  UNL1        0.0964
     12 C         138.0624  143.5247  164.4952 C.3     1  UNL1        0.0389
     13 C         138.2049  142.0473  164.7111 C.3     1  UNL1        0.0739
     14 N         138.8983  141.0380  163.8447 N.3     1  UNL1       -0.2725
     15 C         139.6204  141.2570  162.5483 C.3     1  UNL1        0.0939
     16 C         139.8275  142.5392  161.7982 C.3     1  UNL1        0.1122
     17 C         141.0028  143.3094  159.5599 C.3     1  UNL1        0.0950
     18 C         141.6856  142.0387  158.7926 C.3     1  UNL1        0.0209
     19 C         142.3364  140.9215  158.0321 C.3     1  UNL1        0.0955
     20 C         138.8651  139.6226  164.3402 C.3     1  UNL1        0.0576
     21 C         138.4912  138.9598  165.6329 C.3     1  UNL1        0.0160
     22 C         138.8182  137.6209  165.0410 C.3     1  UNL1        0.0028
     23 C         139.1920  138.2836  163.7483 C.3     1  UNL1        0.0160
     24 S         143.6946  140.0888  155.9798 S.O2    1  UNL1        0.0421
     25 O         143.8376  139.3063  157.2515 O.2     1  UNL1       -0.1573
     26 O         143.5516  140.8713  154.7081 O.2     1  UNL1       -0.1573
     27 C         145.2996  139.2799  154.1038 C.3     1  UNL1        0.0270
     28 C         144.3454  138.9717  155.2193 C.3     1  UNL1        0.1459
     29 C         144.0420  137.5462  155.5742 C.3     1  UNL1        0.0270
@<TRIPOS>BOND
     1    27    28    1
     2    28    29    1
     3    28    24    1
     4    24    25    2
     5    24    26    2
     6    24     1    1
     7     1     2    1
     8     2     3    1
     9     3     4    1
    10     4     5    1
    11     5     6    1
    12     6     7    1
    13     7     8   am
    14     8     9    2
    15     8    10   am
    16    10    11    1
    17    11    12    1
    18    12    13    1
    19    13    14    1
    20    14    20    1
    21    20    21    1
    22    21    22    1
    23    22    23    1
    24    14    15    1
    25    15    16    1
    26     7    17    1
    27     4    18    1
    28    18    19    1
    29    19     1    1
    30    17     4    1
    31    16    10    1
    32    23    20    1
