@<TRIPOS>MOLECULE
*****
 44 49 0 0 0
SMALL
GASTEIGER

@<TRIPOS>ATOM
      1 C         137.8322  143.0613  162.9065 C.3     1  UNL1        0.0932
      2 C         138.1553  142.7729  161.4704 C.3     1  UNL1        0.0286
      3 C         138.1976  141.3557  160.9811 C.3     1  UNL1        0.0193
      4 C         137.9169  140.2266  161.9280 C.3     1  UNL1        0.0700
      5 C         137.5939  140.5149  163.3641 C.3     1  UNL1        0.0193
      6 C         137.5515  141.9323  163.8534 C.3     1  UNL1        0.0286
      7 C         137.8820  140.9868  162.2423 C.3     1  UNL1        0.1562
      8 O         137.8437  142.2684  162.6848 O.3     1  UNL1       -0.3572
      9 N         137.9593  138.8093  161.4387 N.3     1  UNL1       -0.2926
     10 H         137.3694  138.7669  160.6077 H       1  UNL1        0.1236
     11 C         139.2711  138.1817  161.0710 C.3     1  UNL1        0.1152
     12 C         140.4510  138.3187  161.9869 C.ar    1  UNL1        0.0765
     13 C         140.5513  137.4620  163.2142 C.ar    1  UNL1        0.0193
     14 C         141.7312  137.5991  164.1301 C.ar    1  UNL1        0.0411
     15 C         142.8109  138.5927  163.8189 C.ar    1  UNL1        0.1708
     16 C         142.7107  139.4494  162.5917 C.ar    1  UNL1        0.1682
     17 N         141.5307  139.3124  161.6757 N.ar    1  UNL1       -0.2304
     18 N         143.7903  140.4431  162.2805 N.am    1  UNL1       -0.2639
     19 C         144.9702  140.5801  163.1964 C.2     1  UNL1        0.2718
     20 O         146.0499  141.5738  162.8852 O.2     1  UNL1       -0.2707
     21 C         145.0705  139.7234  164.4237 C.3     1  UNL1        0.2898
     22 O         143.9908  138.7297  164.7349 O.3     1  UNL1       -0.4628
     23 H         143.7246  141.0054  161.4750 H       1  UNL1        0.1565
     24 C         137.7898  144.4786  163.3958 C.3     1  UNL1        0.0320
     25 C         138.9318  145.0298  164.1973 C.3     1  UNL1        0.0327
     26 C         140.7590  142.1308  167.1139 C.ar    1  UNL1        0.2249
     27 C         142.1502  141.6171  166.8889 C.ar    1  UNL1        0.0593
     28 C         142.9323  142.0697  165.6916 C.ar    1  UNL1        0.0254
     29 C         142.3232  143.0360  164.7194 C.ar    1  UNL1        0.0990
     30 N         143.1053  143.4886  163.5221 N.ar    1  UNL1       -0.2400
     31 C         142.4963  144.4549  162.5499 C.ar    1  UNL1        0.1281
     32 C         141.1050  144.9687  162.7749 C.ar    1  UNL1        0.1566
     33 F         140.4960  145.9350  161.8027 F       1  UNL1       -0.2028
     34 C         140.3229  144.5161  163.9722 C.ar    1  UNL1        0.0261
     35 C         140.9321  143.5497  164.9444 C.ar    1  UNL1        0.1002
     36 N         140.1499  143.0971  166.1417 N.ar    1  UNL1       -0.2104
     37 O         139.9769  141.6782  168.3112 O.3     1  UNL1       -0.4602
     38 C         139.9457  140.2249  168.6811 C.3     1  UNL1        0.2071
     39 C         140.6427  139.7517  169.9222 C.3     1  UNL1        0.0478
     40 C         142.1229  139.5092  169.9049 C.3     1  UNL1        0.0097
     41 C         143.0643  140.5830  170.3638 C.3     1  UNL1        0.0418
     42 O         142.9569  143.1284  169.8543 O.co2   1  UNL1       -0.5492
     43 C         142.5412  141.9514  170.6861 C.2     1  UNL1        0.0503
     44 O         141.6025  142.1428  171.8403 O.co2   1  UNL1       -0.5492
@<TRIPOS>UNITY_ATOM_ATTR
42 1
charge -1
@<TRIPOS>BOND
     1    42    43   ar
     2    43    44   ar
     3    43    41    1
     4    41    40    1
     5    40    39    1
     6    39    38    1
     7    38    37    1
     8    37    26    1
     9    26    27   ar
    10    27    28   ar
    11    28    29   ar
    12    29    30   ar
    13    30    31   ar
    14    31    32   ar
    15    32    33    1
    16    32    34   ar
    17    34    25    1
    18    25    24    1
    19    24     1    1
    20     1     2    1
    21     2     3    1
    22     3     4    1
    23     4     9    1
    24     9    11    1
    25    11    12    1
    26    12    13   ar
    27    13    14   ar
    28    14    15   ar
    29    15    16   ar
    30    16    17   ar
    31    16    18    1
    32    18    19   am
    33    19    20    2
    34    19    21    1
    35    21    22    1
    36     4     5    1
    37     5     6    1
    38     4     7    1
    39     7     8    1
    40    34    35   ar
    41    35    36   ar
    42    36    26   ar
    43    35    29   ar
    44     6     1    1
    45     8     1    1
    46    17    12   ar
    47    22    15    1
    48     9    10    1
    49    18    23    1
@<TRIPOS>MOLECULE
*****
 44 49 0 0 0
SMALL
GASTEIGER

@<TRIPOS>ATOM
      1 C         141.9603  138.0152  163.7758 C.3     1  UNL1        0.0932
      2 C         142.2673  138.4729  162.3807 C.3     1  UNL1        0.0286
      3 C         143.4666  139.3356  162.1212 C.3     1  UNL1        0.0193
      4 C         144.3588  139.7408  163.2570 C.3     1  UNL1        0.0700
      5 C         144.0518  139.2832  164.6520 C.3     1  UNL1        0.0193
      6 C         142.8525  138.4203  164.9114 C.3     1  UNL1        0.0286
      7 C         143.7131  139.2671  163.4482 C.3     1  UNL1        0.1562
      8 O         142.6287  138.4869  163.6828 O.3     1  UNL1       -0.3572
      9 N         145.5581  140.6036  162.9975 N.3     1  UNL1       -0.2926
     10 H         145.6885  140.6302  161.9863 H       1  UNL1        0.1236
     11 C         145.5760  142.0258  163.4740 C.3     1  UNL1        0.1152
     12 C         144.3770  142.9023  163.2640 C.ar    1  UNL1        0.0765
     13 C         143.6893  143.5272  164.4416 C.ar    1  UNL1        0.0193
     14 C         142.4903  144.4036  164.2316 C.ar    1  UNL1        0.0411
     15 C         141.9790  144.6553  162.8441 C.ar    1  UNL1        0.1708
     16 C         142.6666  144.0305  161.6665 C.ar    1  UNL1        0.1682
     17 N         143.8657  143.1540  161.8765 N.ar    1  UNL1       -0.2304
     18 N         142.1553  144.2822  160.2790 N.am    1  UNL1       -0.2639
     19 C         140.9563  145.1587  160.0690 C.2     1  UNL1        0.2718
     20 O         140.4450  145.4104  158.6815 O.2     1  UNL1       -0.2707
     21 C         140.2686  145.7836  161.2466 C.3     1  UNL1        0.2898
     22 O         140.7799  145.5319  162.6341 O.3     1  UNL1       -0.4628
     23 H         142.6067  143.8721  159.5061 H       1  UNL1        0.1565
     24 C         140.7610  137.1524  164.0352 C.3     1  UNL1        0.0320
     25 C         139.4846  137.7698  164.5246 C.3     1  UNL1        0.0327
     26 C         140.3571  141.7033  166.5287 C.ar    1  UNL1        0.2249
     27 C         139.8607  142.9814  165.9204 C.ar    1  UNL1        0.0593
     28 C         139.0734  142.9483  164.6440 C.ar    1  UNL1        0.0254
     29 C         138.7826  141.6372  163.9759 C.ar    1  UNL1        0.0990
     30 N         137.9954  141.6041  162.6996 N.ar    1  UNL1       -0.2400
     31 C         137.7045  140.2930  162.0315 C.ar    1  UNL1        0.1281
     32 C         138.2009  139.0148  162.6399 C.ar    1  UNL1        0.1566
     33 F         137.9101  137.7037  161.9718 F       1  UNL1       -0.2028
     34 C         138.9882  139.0479  163.9162 C.ar    1  UNL1        0.0261
     35 C         139.2790  140.3591  164.5843 C.ar    1  UNL1        0.1002
     36 N         140.0662  140.3922  165.8607 N.ar    1  UNL1       -0.2104
     37 O         141.1443  141.7364  167.8051 O.3     1  UNL1       -0.4602
     38 C         142.4314  140.9736  167.9124 C.3     1  UNL1        0.2071
     39 C         142.4311  139.5742  168.4527 C.3     1  UNL1        0.0478
     40 C         142.4639  139.3423  169.9343 C.3     1  UNL1        0.0097
     41 C         142.1982  140.4781  170.8773 C.3     1  UNL1        0.0418
     42 O         139.6474  140.0069  170.7315 O.co2   1  UNL1       -0.5492
     43 C         140.7877  140.8405  171.2365 C.2     1  UNL1        0.0503
     44 O         140.5173  142.0364  172.1006 O.co2   1  UNL1       -0.5492
@<TRIPOS>UNITY_ATOM_ATTR
42 1
charge -1
@<TRIPOS>BOND
     1    42    43   ar
     2    43    44   ar
     3    43    41    1
     4    41    40    1
     5    40    39    1
     6    39    38    1
     7    38    37    1
     8    37    26    1
     9    26    27   ar
    10    27    28   ar
    11    28    29   ar
    12    29    30   ar
    13    30    31   ar
    14    31    32   ar
    15    32    33    1
    16    32    34   ar
    17    34    25    1
    18    25    24    1
    19    24     1    1
    20     1     2    1
    21     2     3    1
    22     3     4    1
    23     4     9    1
    24     9    11    1
    25    11    12    1
    26    12    13   ar
    27    13    14   ar
    28    14    15   ar
    29    15    16   ar
    30    16    17   ar
    31    16    18    1
    32    18    19   am
    33    19    20    2
    34    19    21    1
    35    21    22    1
    36     4     5    1
    37     5     6    1
    38     4     7    1
    39     7     8    1
    40    34    35   ar
    41    35    36   ar
    42    36    26   ar
    43    35    29   ar
    44     6     1    1
    45     8     1    1
    46    17    12   ar
    47    22    15    1
    48     9    10    1
    49    18    23    1
@<TRIPOS>MOLECULE
*****
 44 49 0 0 0
SMALL
GASTEIGER

@<TRIPOS>ATOM
      1 C         137.7476  142.7623  163.2398 C.3     1  UNL1        0.0932
      2 C         137.7216  141.5118  164.0678 C.3     1  UNL1        0.0286
      3 C         137.8251  140.1706  163.4041 C.3     1  UNL1        0.0193
      4 C         137.9546  140.0800  161.9124 C.3     1  UNL1        0.0700
      5 C         137.9806  141.3305  161.0845 C.3     1  UNL1        0.0193
      6 C         137.8771  142.6717  161.7482 C.3     1  UNL1        0.0286
      7 C         137.9009  140.8373  162.2310 C.3     1  UNL1        0.1562
      8 O         137.8074  142.0500  162.8311 O.3     1  UNL1       -0.3572
      9 N         138.0581  138.7388  161.2487 N.3     1  UNL1       -0.2926
     10 H         137.5492  138.8063  160.3674 H       1  UNL1        0.1236
     11 C         139.4054  138.1628  160.9277 C.3     1  UNL1        0.1152
     12 C         140.5361  138.3111  161.9021 C.ar    1  UNL1        0.0765
     13 C         140.5614  137.4838  163.1531 C.ar    1  UNL1        0.0193
     14 C         141.6920  137.6321  164.1276 C.ar    1  UNL1        0.0411
     15 C         142.7974  138.6077  163.8511 C.ar    1  UNL1        0.1708
     16 C         142.7721  139.4350  162.6002 C.ar    1  UNL1        0.1682
     17 N         141.6414  139.2867  161.6257 N.ar    1  UNL1       -0.2304
     18 N         143.8774  140.4106  162.3238 N.am    1  UNL1       -0.2639
     19 C         145.0080  140.5589  163.2982 C.2     1  UNL1        0.2718
     20 O         146.1133  141.5345  163.0218 O.2     1  UNL1       -0.2707
     21 C         145.0334  139.7316  164.5492 C.3     1  UNL1        0.2898
     22 O         143.9280  138.7560  164.8257 O.3     1  UNL1       -0.4628
     23 H         143.8608  140.9536  161.5027 H       1  UNL1        0.1565
     24 C         137.6441  144.1035  163.9035 C.3     1  UNL1        0.0320
     25 C         138.8883  144.8499  164.2843 C.3     1  UNL1        0.0327
     26 C         140.8288  142.7264  167.7448 C.ar    1  UNL1        0.2249
     27 C         142.1724  142.0825  167.5715 C.ar    1  UNL1        0.0593
     28 C         142.8692  142.1464  166.2447 C.ar    1  UNL1        0.0254
     29 C         142.2224  142.8542  165.0912 C.ar    1  UNL1        0.0990
     30 N         142.9191  142.9181  163.7644 N.ar    1  UNL1       -0.2400
     31 C         142.2723  143.6259  162.6109 C.ar    1  UNL1        0.1281
     32 C         140.9287  144.2699  162.7842 C.ar    1  UNL1        0.1566
     33 F         140.2819  144.9777  161.6307 F       1  UNL1       -0.2028
     34 C         140.2319  144.2060  164.1110 C.ar    1  UNL1        0.0261
     35 C         140.8788  143.4981  165.2645 C.ar    1  UNL1        0.1002
     36 N         140.1820  143.4342  166.5913 N.ar    1  UNL1       -0.2104
     37 O         140.1321  142.6625  169.0716 O.3     1  UNL1       -0.4602
     38 C         139.9791  141.3470  169.7758 C.3     1  UNL1        0.2071
     39 C         139.1212  140.2715  169.1780 C.3     1  UNL1        0.0478
     40 C         139.5542  139.5797  167.9195 C.3     1  UNL1        0.0097
     41 C         138.5634  139.3320  166.8208 C.3     1  UNL1        0.0418
     42 O         138.2021  137.0048  165.7236 O.co2   1  UNL1       -0.5492
     43 C         137.8268  138.0270  166.7553 C.2     1  UNL1        0.0503
     44 O         136.7148  137.7441  167.7215 O.co2   1  UNL1       -0.5492
@<TRIPOS>UNITY_ATOM_ATTR
42 1
charge -1
@<TRIPOS>BOND
     1    42    43   ar
     2    43    44   ar
     3    43    41    1
     4    41    40    1
     5    40    39    1
     6    39    38    1
     7    38    37    1
     8    37    26    1
     9    26    27   ar
    10    27    28   ar
    11    28    29   ar
    12    29    30   ar
    13    30    31   ar
    14    31    32   ar
    15    32    33    1
    16    32    34   ar
    17    34    25    1
    18    25    24    1
    19    24     1    1
    20     1     2    1
    21     2     3    1
    22     3     4    1
    23     4     9    1
    24     9    11    1
    25    11    12    1
    26    12    13   ar
    27    13    14   ar
    28    14    15   ar
    29    15    16   ar
    30    16    17   ar
    31    16    18    1
    32    18    19   am
    33    19    20    2
    34    19    21    1
    35    21    22    1
    36     4     5    1
    37     5     6    1
    38     4     7    1
    39     7     8    1
    40    34    35   ar
    41    35    36   ar
    42    36    26   ar
    43    35    29   ar
    44     6     1    1
    45     8     1    1
    46    17    12   ar
    47    22    15    1
    48     9    10    1
    49    18    23    1
@<TRIPOS>MOLECULE
*****
 44 49 0 0 0
SMALL
GASTEIGER

@<TRIPOS>ATOM
      1 C         137.9476  142.8269  163.7564 C.3     1  UNL1        0.0932
      2 C         137.7785  142.6506  162.2764 C.3     1  UNL1        0.0286
      3 C         137.7358  141.2726  161.6854 C.3     1  UNL1        0.0193
      4 C         137.8621  140.0710  162.5743 C.3     1  UNL1        0.0700
      5 C         138.0311  140.2473  164.0542 C.3     1  UNL1        0.0193
      6 C         138.0739  141.6253  164.6453 C.3     1  UNL1        0.0286
      7 C         137.8912  140.8060  162.9441 C.3     1  UNL1        0.1562
      8 O         137.9299  142.0520  163.4786 O.3     1  UNL1       -0.3572
      9 N         137.8194  138.6930  161.9832 N.3     1  UNL1       -0.2926
     10 H         137.0882  138.7003  161.2720 H       1  UNL1        0.1236
     11 C         139.0444  138.1150  161.3389 C.3     1  UNL1        0.1152
     12 C         140.3996  138.3970  161.9166 C.ar    1  UNL1        0.0765
     13 C         141.4745  138.9886  161.0535 C.ar    1  UNL1        0.0193
     14 C         142.8298  139.2706  161.6312 C.ar    1  UNL1        0.0411
     15 C         143.1102  138.9612  163.0719 C.ar    1  UNL1        0.1708
     16 C         142.0354  138.3697  163.9349 C.ar    1  UNL1        0.1682
     17 N         140.6801  138.0876  163.3573 N.ar    1  UNL1       -0.2304
     18 N         142.3158  138.0602  165.3756 N.am    1  UNL1       -0.2639
     19 C         143.6710  138.3423  165.9533 C.2     1  UNL1        0.2718
     20 O         143.9515  138.0329  167.3940 O.2     1  UNL1       -0.2707
     21 C         144.7459  138.9339  165.0902 C.3     1  UNL1        0.2898
     22 O         144.4655  139.2433  163.6495 O.3     1  UNL1       -0.4628
     23 H         141.6104  137.6720  165.9420 H       1  UNL1        0.1565
     24 C         137.9903  144.2048  164.3475 C.3     1  UNL1        0.0320
     25 C         139.3040  144.9099  164.5121 C.3     1  UNL1        0.0327
     26 C         143.0905  142.6458  165.3986 C.ar    1  UNL1        0.2249
     27 C         144.1497  142.5139  164.3447 C.ar    1  UNL1        0.0593
     28 C         143.9468  143.1368  162.9953 C.ar    1  UNL1        0.0254
     29 C         142.6846  143.8915  162.6998 C.ar    1  UNL1        0.0990
     30 N         142.4817  144.5144  161.3504 N.ar    1  UNL1       -0.2400
     31 C         141.2195  145.2691  161.0549 C.ar    1  UNL1        0.1281
     32 C         140.1603  145.4010  162.1089 C.ar    1  UNL1        0.1566
     33 F         138.8981  146.1557  161.8134 F       1  UNL1       -0.2028
     34 C         140.3632  144.7781  163.4582 C.ar    1  UNL1        0.0261
     35 C         141.6254  144.0234  163.7537 C.ar    1  UNL1        0.1002
     36 N         141.8284  143.4005  165.1031 N.ar    1  UNL1       -0.2104
     37 O         143.2935  142.0229  166.7480 O.3     1  UNL1       -0.4602
     38 C         142.1086  141.5991  167.5643 C.3     1  UNL1        0.2071
     39 C         140.9229  140.9700  166.8947 C.3     1  UNL1        0.0478
     40 C         140.0145  140.0652  167.6734 C.3     1  UNL1        0.0097
     41 C         140.1374  139.9830  169.1661 C.3     1  UNL1        0.0418
     42 O         139.2362  142.0094  170.5195 O.co2   1  UNL1       -0.5492
     43 C         139.0840  140.5961  170.0402 C.2     1  UNL1        0.0503
     44 O         137.8782  139.7961  170.4352 O.co2   1  UNL1       -0.5492
@<TRIPOS>UNITY_ATOM_ATTR
42 1
charge -1
@<TRIPOS>BOND
     1    42    43   ar
     2    43    44   ar
     3    43    41    1
     4    41    40    1
     5    40    39    1
     6    39    38    1
     7    38    37    1
     8    37    26    1
     9    26    27   ar
    10    27    28   ar
    11    28    29   ar
    12    29    30   ar
    13    30    31   ar
    14    31    32   ar
    15    32    33    1
    16    32    34   ar
    17    34    25    1
    18    25    24    1
    19    24     1    1
    20     1     2    1
    21     2     3    1
    22     3     4    1
    23     4     9    1
    24     9    11    1
    25    11    12    1
    26    12    13   ar
    27    13    14   ar
    28    14    15   ar
    29    15    16   ar
    30    16    17   ar
    31    16    18    1
    32    18    19   am
    33    19    20    2
    34    19    21    1
    35    21    22    1
    36     4     5    1
    37     5     6    1
    38     4     7    1
    39     7     8    1
    40    34    35   ar
    41    35    36   ar
    42    36    26   ar
    43    35    29   ar
    44     6     1    1
    45     8     1    1
    46    17    12   ar
    47    22    15    1
    48     9    10    1
    49    18    23    1
@<TRIPOS>MOLECULE
*****
 44 49 0 0 0
SMALL
GASTEIGER

@<TRIPOS>ATOM
      1 C         138.7901  143.0933  163.1607 C.3     1  UNL1        0.0932
      2 C         139.4804  143.2561  164.4824 C.3     1  UNL1        0.0286
      3 C         140.7240  144.0888  164.5816 C.3     1  UNL1        0.0193
      4 C         141.2775  144.7588  163.3589 C.3     1  UNL1        0.0700
      5 C         140.5872  144.5960  162.0371 C.3     1  UNL1        0.0193
      6 C         139.3435  143.7632  161.9380 C.3     1  UNL1        0.0286
      7 C         140.5934  144.3124  163.2552 C.3     1  UNL1        0.1562
      8 O         139.4689  143.5594  163.1655 O.3     1  UNL1       -0.3572
      9 N         142.5211  145.5915  163.4580 N.3     1  UNL1       -0.2926
     10 H         142.5094  146.0298  164.3789 H       1  UNL1        0.1236
     11 C         143.8679  144.9498  163.3009 C.3     1  UNL1        0.1152
     12 C         143.9729  143.4683  163.0916 C.ar    1  UNL1        0.0765
     13 C         144.3098  142.5699  164.2447 C.ar    1  UNL1        0.0193
     14 C         144.4149  141.0884  164.0354 C.ar    1  UNL1        0.0411
     15 C         144.1831  140.5050  162.6731 C.ar    1  UNL1        0.1708
     16 C         143.8462  141.4033  161.5200 C.ar    1  UNL1        0.1682
     17 N         143.7411  142.8850  161.7293 N.ar    1  UNL1       -0.2304
     18 N         143.6144  140.8200  160.1577 N.am    1  UNL1       -0.2639
     19 C         143.7195  139.3384  159.9484 C.2     1  UNL1        0.2718
     20 O         143.4876  138.7551  158.5860 O.2     1  UNL1       -0.2707
     21 C         144.0564  138.4401  161.1015 C.3     1  UNL1        0.2898
     22 O         144.2882  139.0234  162.4638 O.3     1  UNL1       -0.4628
     23 H         143.3933  141.4095  159.4009 H       1  UNL1        0.1565
     24 C         137.5464  142.2606  163.0616 C.3     1  UNL1        0.0320
     25 C         137.5289  140.8691  163.6214 C.3     1  UNL1        0.0327
     26 C         141.1422  139.3736  165.8479 C.ar    1  UNL1        0.2249
     27 C         142.0096  138.3104  165.2419 C.ar    1  UNL1        0.0593
     28 C         141.6725  137.7456  163.8938 C.ar    1  UNL1        0.0254
     29 C         140.4681  138.2441  163.1516 C.ar    1  UNL1        0.0990
     30 N         140.1311  137.6794  161.8035 N.ar    1  UNL1       -0.2400
     31 C         138.9266  138.1779  161.0613 C.ar    1  UNL1        0.1281
     32 C         138.0592  139.2412  161.6673 C.ar    1  UNL1        0.1566
     33 F         136.8548  139.7396  160.9252 F       1  UNL1       -0.2028
     34 C         138.3963  139.8059  163.0155 C.ar    1  UNL1        0.0261
     35 C         139.6008  139.3073  163.7576 C.ar    1  UNL1        0.1002
     36 N         139.9378  139.8721  165.1058 N.ar    1  UNL1       -0.2104
     37 O         141.4793  139.9383  167.1961 O.3     1  UNL1       -0.4602
     38 C         142.7877  140.6402  167.4094 C.3     1  UNL1        0.2071
     39 C         142.8077  142.0507  167.9193 C.3     1  UNL1        0.0478
     40 C         142.0718  142.4038  169.1778 C.3     1  UNL1        0.0097
     41 C         140.6889  142.9800  169.1015 C.3     1  UNL1        0.0418
     42 O         139.9877  145.1411  170.3616 O.co2   1  UNL1       -0.5492
     43 C         140.0864  143.6454  170.3031 C.2     1  UNL1        0.0503
     44 O         139.5824  142.8153  171.4463 O.co2   1  UNL1       -0.5492
@<TRIPOS>UNITY_ATOM_ATTR
42 1
charge -1
@<TRIPOS>BOND
     1    42    43   ar
     2    43    44   ar
     3    43    41    1
     4    41    40    1
     5    40    39    1
     6    39    38    1
     7    38    37    1
     8    37    26    1
     9    26    27   ar
    10    27    28   ar
    11    28    29   ar
    12    29    30   ar
    13    30    31   ar
    14    31    32   ar
    15    32    33    1
    16    32    34   ar
    17    34    25    1
    18    25    24    1
    19    24     1    1
    20     1     2    1
    21     2     3    1
    22     3     4    1
    23     4     9    1
    24     9    11    1
    25    11    12    1
    26    12    13   ar
    27    13    14   ar
    28    14    15   ar
    29    15    16   ar
    30    16    17   ar
    31    16    18    1
    32    18    19   am
    33    19    20    2
    34    19    21    1
    35    21    22    1
    36     4     5    1
    37     5     6    1
    38     4     7    1
    39     7     8    1
    40    34    35   ar
    41    35    36   ar
    42    36    26   ar
    43    35    29   ar
    44     6     1    1
    45     8     1    1
    46    17    12   ar
    47    22    15    1
    48     9    10    1
    49    18    23    1
@<TRIPOS>MOLECULE
*****
 44 49 0 0 0
SMALL
GASTEIGER

@<TRIPOS>ATOM
      1 C         138.3319  140.0949  164.4724 C.3     1  UNL1        0.0932
      2 C         138.7509  141.3083  165.2483 C.3     1  UNL1        0.0286
      3 C         138.5298  142.6773  164.6767 C.3     1  UNL1        0.0193
      4 C         137.8897  142.8330  163.3290 C.3     1  UNL1        0.0700
      5 C         137.4707  141.6195  162.5531 C.3     1  UNL1        0.0193
      6 C         137.6919  140.2505  163.1248 C.3     1  UNL1        0.0286
      7 C         137.9903  142.0623  163.6010 C.3     1  UNL1        0.1562
      8 O         138.1902  140.8244  164.1179 O.3     1  UNL1       -0.3572
      9 N         137.6686  144.2020  162.7574 N.3     1  UNL1       -0.2926
     10 H         137.0475  144.6929  163.4006 H       1  UNL1        0.1236
     11 C         138.8375  145.1083  162.5077 C.3     1  UNL1        0.1152
     12 C         140.0573  144.5841  161.8097 C.ar    1  UNL1        0.0765
     13 C         140.1431  144.6306  160.3128 C.ar    1  UNL1        0.0193
     14 C         141.3629  144.1064  159.6148 C.ar    1  UNL1        0.0411
     15 C         142.4969  143.5357  160.4136 C.ar    1  UNL1        0.1708
     16 C         142.4112  143.4891  161.9104 C.ar    1  UNL1        0.1682
     17 N         141.1914  144.0133  162.6085 N.ar    1  UNL1       -0.2304
     18 N         143.5453  142.9184  162.7092 N.am    1  UNL1       -0.2639
     19 C         144.7651  142.3942  162.0112 C.2     1  UNL1        0.2718
     20 O         145.8992  141.8234  162.8100 O.2     1  UNL1       -0.2707
     21 C         144.8509  142.4407  160.5144 C.3     1  UNL1        0.2898
     22 O         143.7168  143.0115  159.7156 O.3     1  UNL1       -0.4628
     23 H         143.4891  142.8878  163.6917 H       1  UNL1        0.1565
     24 C         138.5530  138.7258  165.0441 C.3     1  UNL1        0.0320
     25 C         139.2146  137.6649  164.2153 C.3     1  UNL1        0.0327
     26 C         143.1213  138.7625  166.1601 C.ar    1  UNL1        0.2249
     27 C         144.3106  139.1055  165.3128 C.ar    1  UNL1        0.0593
     28 C         144.1977  139.0826  163.8173 C.ar    1  UNL1        0.0254
     29 C         142.8954  138.7168  163.1690 C.ar    1  UNL1        0.0990
     30 N         142.7825  138.6939  161.6734 N.ar    1  UNL1       -0.2400
     31 C         141.4803  138.3280  161.0252 C.ar    1  UNL1        0.1281
     32 C         140.2909  137.9850  161.8725 C.ar    1  UNL1        0.1566
     33 F         138.9887  137.6191  161.2242 F       1  UNL1       -0.2028
     34 C         140.4039  138.0079  163.3680 C.ar    1  UNL1        0.0261
     35 C         141.7062  138.3738  164.0163 C.ar    1  UNL1        0.1002
     36 N         141.8191  138.3966  165.5119 N.ar    1  UNL1       -0.2104
     37 O         143.2343  138.7854  167.6557 O.3     1  UNL1       -0.4602
     38 C         142.5296  139.8486  168.4449 C.3     1  UNL1        0.2071
     39 C         142.4860  141.2578  167.9329 C.3     1  UNL1        0.0478
     40 C         141.2294  142.0660  168.0671 C.3     1  UNL1        0.0097
     41 C         140.9882  142.8772  169.3056 C.3     1  UNL1        0.0418
     42 O         139.0397  141.6282  170.4860 O.co2   1  UNL1       -0.5492
     43 C         140.4149  142.2257  170.5290 C.2     1  UNL1        0.0503
     44 O         141.2167  142.1718  171.7956 O.co2   1  UNL1       -0.5492
@<TRIPOS>UNITY_ATOM_ATTR
42 1
charge -1
@<TRIPOS>BOND
     1    42    43   ar
     2    43    44   ar
     3    43    41    1
     4    41    40    1
     5    40    39    1
     6    39    38    1
     7    38    37    1
     8    37    26    1
     9    26    27   ar
    10    27    28   ar
    11    28    29   ar
    12    29    30   ar
    13    30    31   ar
    14    31    32   ar
    15    32    33    1
    16    32    34   ar
    17    34    25    1
    18    25    24    1
    19    24     1    1
    20     1     2    1
    21     2     3    1
    22     3     4    1
    23     4     9    1
    24     9    11    1
    25    11    12    1
    26    12    13   ar
    27    13    14   ar
    28    14    15   ar
    29    15    16   ar
    30    16    17   ar
    31    16    18    1
    32    18    19   am
    33    19    20    2
    34    19    21    1
    35    21    22    1
    36     4     5    1
    37     5     6    1
    38     4     7    1
    39     7     8    1
    40    34    35   ar
    41    35    36   ar
    42    36    26   ar
    43    35    29   ar
    44     6     1    1
    45     8     1    1
    46    17    12   ar
    47    22    15    1
    48     9    10    1
    49    18    23    1
@<TRIPOS>MOLECULE
*****
 44 49 0 0 0
SMALL
GASTEIGER

@<TRIPOS>ATOM
      1 C         138.0081  141.7540  164.1318 C.3     1  UNL1        0.0932
      2 C         138.4410  140.7235  165.1321 C.3     1  UNL1        0.0286
      3 C         138.8785  139.3656  164.6686 C.3     1  UNL1        0.0193
      4 C         138.8830  139.0382  163.2048 C.3     1  UNL1        0.0700
      5 C         138.4501  140.0687  162.2044 C.3     1  UNL1        0.0193
      6 C         138.0127  141.4266  162.6680 C.3     1  UNL1        0.0286
      7 C         138.6350  139.7958  163.4109 C.3     1  UNL1        0.1562
      8 O         138.2395  141.0237  163.8299 O.3     1  UNL1       -0.3572
      9 N         139.3205  137.6804  162.7413 N.3     1  UNL1       -0.2926
     10 H         138.9740  137.5687  161.7885 H       1  UNL1        0.1236
     11 C         140.7789  137.3306  162.7154 C.3     1  UNL1        0.1152
     12 C         141.8054  138.4078  162.5262 C.ar    1  UNL1        0.0765
     13 C         142.8719  138.6174  163.5600 C.ar    1  UNL1        0.0193
     14 C         143.8984  139.6947  163.3708 C.ar    1  UNL1        0.0411
     15 C         143.8583  140.5624  162.1478 C.ar    1  UNL1        0.1708
     16 C         142.7918  140.3528  161.1141 C.ar    1  UNL1        0.1682
     17 N         141.7653  139.2755  161.3033 N.ar    1  UNL1       -0.2304
     18 N         142.7518  141.2205  159.8912 N.am    1  UNL1       -0.2639
     19 C         143.7783  142.2977  159.7020 C.2     1  UNL1        0.2718
     20 O         143.7382  143.1654  158.4791 O.2     1  UNL1       -0.2707
     21 C         144.8448  142.5074  160.7357 C.3     1  UNL1        0.2898
     22 O         144.8849  141.6397  161.9587 O.3     1  UNL1       -0.4628
     23 H         142.0518  141.0829  159.2128 H       1  UNL1        0.1565
     24 C         137.5707  143.1118  164.5953 C.3     1  UNL1        0.0320
     25 C         138.5927  144.1264  165.0149 C.3     1  UNL1        0.0327
     26 C         142.4188  142.4739  166.7121 C.ar    1  UNL1        0.2249
     27 C         143.7001  142.6096  165.9441 C.ar    1  UNL1        0.0593
     28 C         143.7061  143.2962  164.6105 C.ar    1  UNL1        0.0254
     29 C         142.4308  143.8470  164.0448 C.ar    1  UNL1        0.0990
     30 N         142.4368  144.5335  162.7111 N.ar    1  UNL1       -0.2400
     31 C         141.1614  145.0844  162.1454 C.ar    1  UNL1        0.1281
     32 C         139.8800  144.9487  162.9133 C.ar    1  UNL1        0.1566
     33 F         138.6047  145.4995  162.3476 F       1  UNL1       -0.2028
     34 C         139.8741  144.2621  164.2470 C.ar    1  UNL1        0.0261
     35 C         141.1495  143.7113  164.8127 C.ar    1  UNL1        0.1002
     36 N         141.1435  143.0247  166.1464 N.ar    1  UNL1       -0.2104
     37 O         142.4128  141.7874  168.0457 O.3     1  UNL1       -0.4602
     38 C         142.1619  140.3108  168.1281 C.3     1  UNL1        0.2071
     39 C         140.7576  139.7852  168.0857 C.3     1  UNL1        0.0478
     40 C         139.6181  140.6534  168.5306 C.3     1  UNL1        0.0097
     41 C         139.4375  140.9662  169.9864 C.3     1  UNL1        0.0418
     42 O         139.9906  143.4895  169.7082 O.co2   1  UNL1       -0.5492
     43 C         139.9746  142.2482  170.5503 C.2     1  UNL1        0.0503
     44 O         140.4956  142.2891  171.9563 O.co2   1  UNL1       -0.5492
@<TRIPOS>UNITY_ATOM_ATTR
42 1
charge -1
@<TRIPOS>BOND
     1    42    43   ar
     2    43    44   ar
     3    43    41    1
     4    41    40    1
     5    40    39    1
     6    39    38    1
     7    38    37    1
     8    37    26    1
     9    26    27   ar
    10    27    28   ar
    11    28    29   ar
    12    29    30   ar
    13    30    31   ar
    14    31    32   ar
    15    32    33    1
    16    32    34   ar
    17    34    25    1
    18    25    24    1
    19    24     1    1
    20     1     2    1
    21     2     3    1
    22     3     4    1
    23     4     9    1
    24     9    11    1
    25    11    12    1
    26    12    13   ar
    27    13    14   ar
    28    14    15   ar
    29    15    16   ar
    30    16    17   ar
    31    16    18    1
    32    18    19   am
    33    19    20    2
    34    19    21    1
    35    21    22    1
    36     4     5    1
    37     5     6    1
    38     4     7    1
    39     7     8    1
    40    34    35   ar
    41    35    36   ar
    42    36    26   ar
    43    35    29   ar
    44     6     1    1
    45     8     1    1
    46    17    12   ar
    47    22    15    1
    48     9    10    1
    49    18    23    1
@<TRIPOS>MOLECULE
*****
 44 49 0 0 0
SMALL
GASTEIGER

@<TRIPOS>ATOM
      1 C         140.4492  143.7500  164.1902 C.3     1  UNL1        0.0932
      2 C         141.4617  144.2486  163.2021 C.3     1  UNL1        0.0286
      3 C         142.9177  143.9511  163.4054 C.3     1  UNL1        0.0193
      4 C         143.3614  143.1551  164.5968 C.3     1  UNL1        0.0700
      5 C         142.3490  142.6565  165.5849 C.3     1  UNL1        0.0193
      6 C         140.8929  142.9539  165.3816 C.3     1  UNL1        0.0286
      7 C         142.5526  143.2929  164.5278 C.3     1  UNL1        0.1562
      8 O         141.2360  143.5618  164.3440 O.3     1  UNL1       -0.3572
      9 N         144.8175  142.8576  164.8001 N.3     1  UNL1       -0.2926
     10 H         144.9313  142.5998  165.7804 H       1  UNL1        0.1236
     11 C         145.4842  141.7855  163.9901 C.3     1  UNL1        0.1152
     12 C         144.6554  140.8287  163.1855 C.ar    1  UNL1        0.0765
     13 C         143.9263  139.7099  163.8687 C.ar    1  UNL1        0.0193
     14 C         143.0975  138.7530  163.0641 C.ar    1  UNL1        0.0411
     15 C         142.9977  138.9150  161.5762 C.ar    1  UNL1        0.1708
     16 C         143.7267  140.0337  160.8929 C.ar    1  UNL1        0.1682
     17 N         144.5556  140.9906  161.6976 N.ar    1  UNL1       -0.2304
     18 N         143.6269  140.1956  159.4050 N.am    1  UNL1       -0.2639
     19 C         142.7981  139.2388  158.6004 C.2     1  UNL1        0.2718
     20 O         142.6983  139.4007  157.1125 O.2     1  UNL1       -0.2707
     21 C         142.0691  138.1200  159.2836 C.3     1  UNL1        0.2898
     22 O         142.1689  137.9580  160.7715 O.3     1  UNL1       -0.4628
     23 H         144.1054  140.9300  158.9566 H       1  UNL1        0.1565
     24 C         138.9932  144.0474  163.9869 C.3     1  UNL1        0.0320
     25 C         138.0004  142.9248  163.9208 C.3     1  UNL1        0.0327
     26 C         138.4970  139.0540  166.1615 C.ar    1  UNL1        0.2249
     27 C         138.8361  137.7957  165.4188 C.ar    1  UNL1        0.0593
     28 C         139.0097  137.8276  163.9293 C.ar    1  UNL1        0.0254
     29 C         138.8442  139.1179  163.1824 C.ar    1  UNL1        0.0990
     30 N         139.0178  139.1498  161.6928 N.ar    1  UNL1       -0.2400
     31 C         138.8523  140.4400  160.9459 C.ar    1  UNL1        0.1281
     32 C         138.5132  141.6984  161.6886 C.ar    1  UNL1        0.1566
     33 F         138.3476  142.9886  160.9417 F       1  UNL1       -0.2028
     34 C         138.3396  141.6665  163.1781 C.ar    1  UNL1        0.0261
     35 C         138.5051  140.3762  163.9250 C.ar    1  UNL1        0.1002
     36 N         138.3315  140.3442  165.4146 N.ar    1  UNL1       -0.2104
     37 O         138.3234  139.0221  167.6511 O.3     1  UNL1       -0.4602
     38 C         139.1039  139.9656  168.5175 C.3     1  UNL1        0.2071
     39 C         140.5589  140.2059  168.2436 C.3     1  UNL1        0.0478
     40 C         141.2958  141.2775  168.9911 C.3     1  UNL1        0.0097
     41 C         140.7818  142.6866  168.9828 C.3     1  UNL1        0.0418
     42 O         139.9819  144.7828  170.2929 O.co2   1  UNL1       -0.5492
     43 C         140.3036  143.3181  170.2566 C.2     1  UNL1        0.0503
     44 O         140.1472  142.4850  171.4941 O.co2   1  UNL1       -0.5492
@<TRIPOS>UNITY_ATOM_ATTR
42 1
charge -1
@<TRIPOS>BOND
     1    42    43   ar
     2    43    44   ar
     3    43    41    1
     4    41    40    1
     5    40    39    1
     6    39    38    1
     7    38    37    1
     8    37    26    1
     9    26    27   ar
    10    27    28   ar
    11    28    29   ar
    12    29    30   ar
    13    30    31   ar
    14    31    32   ar
    15    32    33    1
    16    32    34   ar
    17    34    25    1
    18    25    24    1
    19    24     1    1
    20     1     2    1
    21     2     3    1
    22     3     4    1
    23     4     9    1
    24     9    11    1
    25    11    12    1
    26    12    13   ar
    27    13    14   ar
    28    14    15   ar
    29    15    16   ar
    30    16    17   ar
    31    16    18    1
    32    18    19   am
    33    19    20    2
    34    19    21    1
    35    21    22    1
    36     4     5    1
    37     5     6    1
    38     4     7    1
    39     7     8    1
    40    34    35   ar
    41    35    36   ar
    42    36    26   ar
    43    35    29   ar
    44     6     1    1
    45     8     1    1
    46    17    12   ar
    47    22    15    1
    48     9    10    1
    49    18    23    1
@<TRIPOS>MOLECULE
*****
 44 49 0 0 0
SMALL
GASTEIGER

@<TRIPOS>ATOM
      1 C         144.9385  140.8424  162.7177 C.3     1  UNL1        0.0932
      2 C         144.5105  139.5064  163.2487 C.3     1  UNL1        0.0286
      3 C         143.7431  138.5617  162.3721 C.3     1  UNL1        0.0193
      4 C         143.4036  138.9529  160.9643 C.3     1  UNL1        0.0700
      5 C         143.8316  140.2889  160.4333 C.3     1  UNL1        0.0193
      6 C         144.5990  141.2336  161.3100 C.3     1  UNL1        0.0286
      7 C         143.8258  139.5040  161.4070 C.3     1  UNL1        0.1562
      8 O         144.5197  140.3583  162.1996 O.3     1  UNL1       -0.3572
      9 N         142.6362  138.0082  160.0877 N.3     1  UNL1       -0.2926
     10 H         142.5702  137.1249  160.5936 H       1  UNL1        0.1236
     11 C         141.2467  138.3579  159.6439 C.3     1  UNL1        0.1152
     12 C         140.2923  139.0023  160.6050 C.ar    1  UNL1        0.0765
     13 C         139.5344  138.1599  161.5878 C.ar    1  UNL1        0.0193
     14 C         138.5799  138.8044  162.5489 C.ar    1  UNL1        0.0411
     15 C         138.3834  140.2913  162.5272 C.ar    1  UNL1        0.1708
     16 C         139.1413  141.1337  161.5444 C.ar    1  UNL1        0.1682
     17 N         140.0958  140.4893  160.5833 N.ar    1  UNL1       -0.2304
     18 N         138.9448  142.6206  161.5227 N.am    1  UNL1       -0.2639
     19 C         137.9904  143.2651  162.4838 C.2     1  UNL1        0.2718
     20 O         137.7938  144.7520  162.4621 O.2     1  UNL1       -0.2707
     21 C         137.2324  142.4226  163.4666 C.3     1  UNL1        0.2898
     22 O         137.4289  140.9357  163.4883 O.3     1  UNL1       -0.4628
     23 H         139.4422  143.1735  160.8777 H       1  UNL1        0.1565
     24 C         145.7059  141.7871  163.5943 C.3     1  UNL1        0.0320
     25 C         144.9916  142.5799  164.6486 C.3     1  UNL1        0.0327
     26 C         141.4030  141.2067  166.9907 C.ar    1  UNL1        0.2249
     27 C         140.0515  141.7905  166.7032 C.ar    1  UNL1        0.0593
     28 C         139.8963  142.8320  165.6350 C.ar    1  UNL1        0.0254
     29 C         141.0924  143.2898  164.8543 C.ar    1  UNL1        0.0990
     30 N         140.9372  144.3313  163.7861 N.ar    1  UNL1       -0.2400
     31 C         142.1334  144.7891  163.0054 C.ar    1  UNL1        0.1281
     32 C         143.4849  144.2053  163.2929 C.ar    1  UNL1        0.1566
     33 F         144.6811  144.6630  162.5121 F       1  UNL1       -0.2028
     34 C         143.6402  143.1637  164.3611 C.ar    1  UNL1        0.0261
     35 C         142.4439  142.7060  165.1418 C.ar    1  UNL1        0.1002
     36 N         142.5992  141.6644  166.2100 N.ar    1  UNL1       -0.2104
     37 O         141.5583  140.1651  168.0589 O.3     1  UNL1       -0.4602
     38 C         140.4085  139.8457  168.9678 C.3     1  UNL1        0.2071
     39 C         140.4970  140.1665  170.4304 C.3     1  UNL1        0.0478
     40 C         141.5412  141.1223  170.9267 C.3     1  UNL1        0.0097
     41 C         141.5396  142.5461  170.4548 C.3     1  UNL1        0.0418
     42 O         139.2250  143.1431  171.4729 O.co2   1  UNL1       -0.5492
     43 C         140.2529  143.3146  170.3939 C.2     1  UNL1        0.0503
     44 O         139.9940  144.2547  169.2541 O.co2   1  UNL1       -0.5492
@<TRIPOS>UNITY_ATOM_ATTR
42 1
charge -1
@<TRIPOS>BOND
     1    42    43   ar
     2    43    44   ar
     3    43    41    1
     4    41    40    1
     5    40    39    1
     6    39    38    1
     7    38    37    1
     8    37    26    1
     9    26    27   ar
    10    27    28   ar
    11    28    29   ar
    12    29    30   ar
    13    30    31   ar
    14    31    32   ar
    15    32    33    1
    16    32    34   ar
    17    34    25    1
    18    25    24    1
    19    24     1    1
    20     1     2    1
    21     2     3    1
    22     3     4    1
    23     4     9    1
    24     9    11    1
    25    11    12    1
    26    12    13   ar
    27    13    14   ar
    28    14    15   ar
    29    15    16   ar
    30    16    17   ar
    31    16    18    1
    32    18    19   am
    33    19    20    2
    34    19    21    1
    35    21    22    1
    36     4     5    1
    37     5     6    1
    38     4     7    1
    39     7     8    1
    40    34    35   ar
    41    35    36   ar
    42    36    26   ar
    43    35    29   ar
    44     6     1    1
    45     8     1    1
    46    17    12   ar
    47    22    15    1
    48     9    10    1
    49    18    23    1
