@<TRIPOS>MOLECULE
*****
 31 34 0 0 0
SMALL
GASTEIGER

@<TRIPOS>ATOM
      1 N         141.0309  144.5681  162.1381 N.am    1  UNL1       -0.1663
      2 C         141.2563  143.1502  162.5725 C.2     1  UNL1        0.3232
      3 O         141.5446  142.0898  161.5515 O.2     1  UNL1       -0.2509
      4 N         141.1933  142.7927  164.0279 N.am    1  UNL1       -0.2677
      5 H         140.8417  145.2641  162.8082 H       1  UNL1        0.1782
      6 H         141.0041  143.4886  164.6981 H       1  UNL1        0.1564
      7 C         141.4187  141.3747  164.4623 C.ar    1  UNL1        0.0430
      8 C         142.8022  140.7953  164.4429 C.ar    1  UNL1       -0.0129
      9 C         143.0277  139.3774  164.8772 C.ar    1  UNL1       -0.0253
     10 C         141.8697  138.5388  165.3309 C.ar    1  UNL1       -0.0091
     11 C         140.4863  139.1182  165.3503 C.ar    1  UNL1       -0.0253
     12 C         140.2608  140.5361  164.9160 C.ar    1  UNL1       -0.0129
     13 C         138.7956  140.8320  165.0416 C.3     1  UNL1        0.0276
     14 C         138.1156  139.5969  165.5535 C.3     1  UNL1        0.0094
     15 C         139.1605  138.5377  165.7443 C.3     1  UNL1        0.0264
     16 C         144.4928  139.0815  164.7516 C.3     1  UNL1        0.0264
     17 C         145.1729  140.3167  164.2396 C.3     1  UNL1        0.0094
     18 C         144.1281  141.3757  164.0488 C.3     1  UNL1        0.0276
     19 S         141.0939  144.9257  160.6827 S.O2    1  UNL1        0.1094
     20 O         142.5714  144.6672  160.6831 O.2     1  UNL1       -0.1468
     21 O         139.6163  145.1841  160.6823 O.2     1  UNL1       -0.1468
     22 C         140.5043  145.8398  156.9568 C.ar    1  UNL1        0.0438
     23 C         142.0030  145.8269  157.0185 C.ar    1  UNL1        0.1793
     24 O         142.4063  145.4829  158.4218 O.2     1  UNL1       -0.4325
     25 C         141.1568  145.2832  159.2273 C.ar    1  UNL1        0.2702
     26 C         139.9813  145.5037  158.3219 C.ar    1  UNL1        0.0598
     27 C         140.2128  144.9067  155.0742 C.3     1  UNL1        0.0340
     28 C         139.6744  146.1366  155.7431 C.3     1  UNL1        0.1102
     29 C         139.1360  147.3665  156.4120 C.3     1  UNL1        0.0340
     30 O         138.8445  146.4334  154.5295 O.3     1  UNL1       -0.3826
     31 H         138.9938  145.7476  153.8600 H       1  UNL1        0.2107
@<TRIPOS>BOND
     1    27    28    1
     2    28    29    1
     3    28    30    1
     4    28    22    1
     5    22    23   ar
     6    23    24   ar
     7    24    25   ar
     8    25    19    1
     9    19    20    2
    10    19    21    2
    11    19     1    1
    12     1     2   am
    13     2     3    2
    14     2     4   am
    15     4     7    1
    16     7     8   ar
    17     8     9   ar
    18     9    10   ar
    19    10    11   ar
    20    11    12   ar
    21    12    13    1
    22    13    14    1
    23    14    15    1
    24     9    16    1
    25    16    17    1
    26    17    18    1
    27    25    26   ar
    28    26    22   ar
    29    12     7   ar
    30    18     8    1
    31    15    11    1
    32    30    31    1
    33     1     5    1
    34     4     6    1
@<TRIPOS>MOLECULE
*****
 31 34 0 0 0
SMALL
GASTEIGER

@<TRIPOS>ATOM
      1 N         141.0197  144.5473  162.1599 N.am    1  UNL1       -0.1663
      2 C         141.2399  143.1286  162.5944 C.2     1  UNL1        0.3232
      3 O         141.5195  142.0662  161.5731 O.2     1  UNL1       -0.2509
      4 N         141.1803  142.7722  164.0502 N.am    1  UNL1       -0.2677
      5 H         140.8362  145.2445  162.8302 H       1  UNL1        0.1782
      6 H         140.9968  143.4695  164.7206 H       1  UNL1        0.1564
      7 C         141.4005  141.3534  164.4847 C.ar    1  UNL1        0.0430
      8 C         140.2395  140.5197  164.9400 C.ar    1  UNL1       -0.0129
      9 C         140.4595  139.1011  165.3744 C.ar    1  UNL1       -0.0253
     10 C         141.8405  138.5159  165.3535 C.ar    1  UNL1       -0.0091
     11 C         143.0015  139.3496  164.8983 C.ar    1  UNL1       -0.0253
     12 C         142.7814  140.7683  164.4638 C.ar    1  UNL1       -0.0129
     13 C         144.1092  141.3432  164.0682 C.3     1  UNL1        0.0276
     14 C         145.1498  140.2797  164.2581 C.3     1  UNL1        0.0094
     15 C         144.4653  139.0476  164.7711 C.3     1  UNL1        0.0264
     16 C         139.1318  138.5262  165.7700 C.3     1  UNL1        0.0264
     17 C         138.0911  139.5897  165.5801 C.3     1  UNL1        0.0094
     18 C         138.7757  140.8217  165.0671 C.3     1  UNL1        0.0276
     19 S         141.0793  144.9036  160.7040 S.O2    1  UNL1        0.1094
     20 O         139.5941  145.1135  160.6947 O.2     1  UNL1       -0.1468
     21 O         142.5645  144.6937  160.7134 O.2     1  UNL1       -0.1468
     22 C         140.4813  145.7941  156.9738 C.ar    1  UNL1        0.0438
     23 C         141.9795  145.8224  157.0420 C.ar    1  UNL1        0.1793
     24 O         142.3859  145.4922  158.4477 O.2     1  UNL1       -0.4325
     25 C         141.1388  145.2599  159.2482 C.ar    1  UNL1        0.2702
     26 C         139.9617  145.4465  158.3373 C.ar    1  UNL1        0.0598
     27 C         139.1550  147.3385  156.3774 C.3     1  UNL1        0.0340
     28 C         139.6489  146.0658  155.7559 C.3     1  UNL1        0.1102
     29 C         140.1429  144.7931  155.1344 C.3     1  UNL1        0.0340
     30 O         138.8166  146.3374  154.5380 O.3     1  UNL1       -0.3826
     31 H         138.3360  147.1719  154.6543 H       1  UNL1        0.2107
@<TRIPOS>BOND
     1    27    28    1
     2    28    29    1
     3    28    30    1
     4    28    22    1
     5    22    23   ar
     6    23    24   ar
     7    24    25   ar
     8    25    19    1
     9    19    20    2
    10    19    21    2
    11    19     1    1
    12     1     2   am
    13     2     3    2
    14     2     4   am
    15     4     7    1
    16     7     8   ar
    17     8     9   ar
    18     9    10   ar
    19    10    11   ar
    20    11    12   ar
    21    12    13    1
    22    13    14    1
    23    14    15    1
    24     9    16    1
    25    16    17    1
    26    17    18    1
    27    25    26   ar
    28    26    22   ar
    29    12     7   ar
    30    18     8    1
    31    15    11    1
    32    30    31    1
    33     1     5    1
    34     4     6    1
@<TRIPOS>MOLECULE
*****
 31 34 0 0 0
SMALL
GASTEIGER

@<TRIPOS>ATOM
      1 N         144.2662  138.7805  160.4640 N.am    1  UNL1       -0.1663
      2 C         143.7351  139.6241  161.5848 C.2     1  UNL1        0.3232
      3 O         142.2805  139.9881  161.6254 O.2     1  UNL1       -0.2509
      4 N         144.6586  140.1038  162.6651 N.am    1  UNL1       -0.2677
      5 H         145.2209  138.5416  160.4373 H       1  UNL1        0.1782
      6 H         145.6133  139.8649  162.6385 H       1  UNL1        0.1564
      7 C         144.1274  140.9474  163.7859 C.ar    1  UNL1        0.0430
      8 C         144.0526  142.4377  163.6325 C.ar    1  UNL1       -0.0129
      9 C         143.5215  143.2813  164.7532 C.ar    1  UNL1       -0.0253
     10 C         143.0651  142.6347  166.0275 C.ar    1  UNL1       -0.0091
     11 C         143.1399  141.1445  166.1809 C.ar    1  UNL1       -0.0253
     12 C         143.6711  140.3008  165.0602 C.ar    1  UNL1       -0.0129
     13 C         143.6257  138.8668  165.4977 C.3     1  UNL1        0.0276
     14 C         143.0666  138.8242  166.8889 C.3     1  UNL1        0.0094
     15 C         142.7663  140.2318  167.3112 C.3     1  UNL1        0.0264
     16 C         143.5668  144.7153  164.3157 C.3     1  UNL1        0.0264
     17 C         144.1261  144.7580  162.9244 C.3     1  UNL1        0.0094
     18 C         144.4262  143.3503  162.5023 C.3     1  UNL1        0.0276
     19 S         143.3427  138.3009  159.3837 S.O2    1  UNL1        0.1094
     20 O         142.9539  137.1295  160.2361 O.2     1  UNL1       -0.1468
     21 O         143.7314  139.4722  158.5312 O.2     1  UNL1       -0.1468
     22 C         141.4975  136.5584  156.4469 C.ar    1  UNL1        0.0438
     23 C         140.4984  137.6078  156.8351 C.ar    1  UNL1        0.1793
     24 O         141.0680  138.3882  157.9825 O.2     1  UNL1       -0.4325
     25 C         142.4191  137.8212  158.3034 C.ar    1  UNL1        0.2702
     26 C         142.6846  136.6903  157.3543 C.ar    1  UNL1        0.0598
     27 C         142.3506  134.6669  156.0061 C.3     1  UNL1        0.0340
     28 C         141.3376  135.5536  155.3447 C.3     1  UNL1        0.1102
     29 C         140.3245  136.4404  154.6833 C.3     1  UNL1        0.0340
     30 O         141.1776  134.5489  154.2425 O.3     1  UNL1       -0.3826
     31 H         141.7607  133.7917  154.4081 H       1  UNL1        0.2107
@<TRIPOS>BOND
     1    27    28    1
     2    28    29    1
     3    28    30    1
     4    28    22    1
     5    22    23   ar
     6    23    24   ar
     7    24    25   ar
     8    25    19    1
     9    19    20    2
    10    19    21    2
    11    19     1    1
    12     1     2   am
    13     2     3    2
    14     2     4   am
    15     4     7    1
    16     7     8   ar
    17     8     9   ar
    18     9    10   ar
    19    10    11   ar
    20    11    12   ar
    21    12    13    1
    22    13    14    1
    23    14    15    1
    24     9    16    1
    25    16    17    1
    26    17    18    1
    27    25    26   ar
    28    26    22   ar
    29    12     7   ar
    30    18     8    1
    31    15    11    1
    32    30    31    1
    33     1     5    1
    34     4     6    1
@<TRIPOS>MOLECULE
*****
 31 34 0 0 0
SMALL
GASTEIGER

@<TRIPOS>ATOM
      1 N         144.2667  138.7802  160.4731 N.am    1  UNL1       -0.1663
      2 C         143.7338  139.6230  161.5937 C.2     1  UNL1        0.3232
      3 O         142.2799  139.9901  161.6302 O.2     1  UNL1       -0.2509
      4 N         144.6548  140.0986  162.6780 N.am    1  UNL1       -0.2677
      5 H         145.2210  138.5393  160.4492 H       1  UNL1        0.1782
      6 H         145.6091  139.8577  162.6541 H       1  UNL1        0.1564
      7 C         144.1219  140.9414  163.7986 C.ar    1  UNL1        0.0430
      8 C         143.6664  140.2940  165.0728 C.ar    1  UNL1       -0.0129
      9 C         143.1334  141.1366  166.1933 C.ar    1  UNL1       -0.0253
     10 C         143.0559  142.6267  166.0398 C.ar    1  UNL1       -0.0091
     11 C         143.5113  143.2741  164.7657 C.ar    1  UNL1       -0.0253
     12 C         144.0443  142.4315  163.6451 C.ar    1  UNL1       -0.0129
     13 C         144.4165  143.3447  162.5149 C.3     1  UNL1        0.0276
     14 C         144.1136  144.7519  162.9370 C.3     1  UNL1        0.0094
     15 C         143.5541  144.7082  164.3281 C.3     1  UNL1        0.0264
     16 C         142.7612  140.2234  167.3235 C.3     1  UNL1        0.0264
     17 C         143.0642  138.8162  166.9014 C.3     1  UNL1        0.0094
     18 C         143.6236  138.8599  165.5104 C.3     1  UNL1        0.0276
     19 S         143.3457  138.3046  159.3889 S.O2    1  UNL1        0.1094
     20 O         143.7513  139.4684  158.5339 O.2     1  UNL1       -0.1468
     21 O         142.9401  137.1409  160.2440 O.2     1  UNL1       -0.1468
     22 C         141.4993  136.5613  156.4535 C.ar    1  UNL1        0.0438
     23 C         140.5155  137.6329  156.8191 C.ar    1  UNL1        0.1793
     24 O         141.0874  138.4165  157.9633 O.2     1  UNL1       -0.4325
     25 C         142.4247  137.8290  158.3047 C.ar    1  UNL1        0.2702
     26 C         142.6793  136.6825  157.3716 C.ar    1  UNL1        0.0598
     27 C         140.2786  136.4041  154.7257 C.3     1  UNL1        0.0340
     28 C         141.3324  135.5466  155.3614 C.3     1  UNL1        0.1102
     29 C         142.3862  134.6891  155.9971 C.3     1  UNL1        0.0340
     30 O         141.1656  134.5319  154.2694 O.3     1  UNL1       -0.3826
     31 H         140.4871  134.8360  153.6464 H       1  UNL1        0.2107
@<TRIPOS>BOND
     1    27    28    1
     2    28    29    1
     3    28    30    1
     4    28    22    1
     5    22    23   ar
     6    23    24   ar
     7    24    25   ar
     8    25    19    1
     9    19    20    2
    10    19    21    2
    11    19     1    1
    12     1     2   am
    13     2     3    2
    14     2     4   am
    15     4     7    1
    16     7     8   ar
    17     8     9   ar
    18     9    10   ar
    19    10    11   ar
    20    11    12   ar
    21    12    13    1
    22    13    14    1
    23    14    15    1
    24     9    16    1
    25    16    17    1
    26    17    18    1
    27    25    26   ar
    28    26    22   ar
    29    12     7   ar
    30    18     8    1
    31    15    11    1
    32    30    31    1
    33     1     5    1
    34     4     6    1
@<TRIPOS>MOLECULE
*****
 31 34 0 0 0
SMALL
GASTEIGER

@<TRIPOS>ATOM
      1 N         141.8574  145.5800  159.5811 N.am    1  UNL1       -0.1663
      2 C         141.8631  144.6031  160.7194 C.2     1  UNL1        0.3232
      3 O         141.4108  143.1902  160.4974 O.2     1  UNL1       -0.2509
      4 N         142.3212  145.0390  162.0796 N.am    1  UNL1       -0.2677
      5 H         142.1542  146.5073  159.7269 H       1  UNL1        0.1782
      6 H         142.6180  145.9663  162.2253 H       1  UNL1        0.1564
      7 C         142.3269  144.0619  163.2178 C.ar    1  UNL1        0.0430
      8 C         143.4852  143.1257  163.3968 C.ar    1  UNL1       -0.0129
      9 C         143.4910  142.1488  164.5348 C.ar    1  UNL1       -0.0253
     10 C         142.3385  142.1078  165.4940 C.ar    1  UNL1       -0.0091
     11 C         141.1802  143.0440  165.3151 C.ar    1  UNL1       -0.0253
     12 C         141.1744  144.0210  164.1770 C.ar    1  UNL1       -0.0129
     13 C         139.9038  144.8145  164.2537 C.3     1  UNL1        0.0276
     14 C         139.1243  144.3278  165.4392 C.3     1  UNL1        0.0094
     15 C         139.9132  143.2336  166.0952 C.3     1  UNL1        0.0264
     16 C         144.7616  141.3553  164.4581 C.3     1  UNL1        0.0264
     17 C         145.5412  141.8419  163.2725 C.3     1  UNL1        0.0094
     18 C         144.7523  142.9361  162.6166 C.3     1  UNL1        0.0276
     19 S         141.3993  145.1442  158.2209 S.O2    1  UNL1        0.1094
     20 O         140.0086  145.6061  158.5412 O.2     1  UNL1       -0.1468
     21 O         142.7900  144.6822  157.9007 O.2     1  UNL1       -0.1468
     22 C         139.5397  144.2628  154.9300 C.ar    1  UNL1        0.0438
     23 C         140.9331  143.8122  154.6052 C.ar    1  UNL1        0.1793
     24 O         141.7994  144.0875  155.7985 O.2     1  UNL1       -0.4325
     25 C         140.9413  144.7083  156.8607 C.ar    1  UNL1        0.2702
     26 C         139.5448  144.8166  156.3240 C.ar    1  UNL1        0.0598
     27 C         139.1539  143.3638  153.0477 C.3     1  UNL1        0.0340
     28 C         138.3502  144.1750  154.0204 C.3     1  UNL1        0.1102
     29 C         137.5466  144.9861  154.9931 C.3     1  UNL1        0.0340
     30 O         137.1607  144.0872  153.1110 O.3     1  UNL1       -0.3826
     31 H         137.3942  143.5737  152.3218 H       1  UNL1        0.2107
@<TRIPOS>BOND
     1    27    28    1
     2    28    29    1
     3    28    30    1
     4    28    22    1
     5    22    23   ar
     6    23    24   ar
     7    24    25   ar
     8    25    19    1
     9    19    20    2
    10    19    21    2
    11    19     1    1
    12     1     2   am
    13     2     3    2
    14     2     4   am
    15     4     7    1
    16     7     8   ar
    17     8     9   ar
    18     9    10   ar
    19    10    11   ar
    20    11    12   ar
    21    12    13    1
    22    13    14    1
    23    14    15    1
    24     9    16    1
    25    16    17    1
    26    17    18    1
    27    25    26   ar
    28    26    22   ar
    29    12     7   ar
    30    18     8    1
    31    15    11    1
    32    30    31    1
    33     1     5    1
    34     4     6    1
@<TRIPOS>MOLECULE
*****
 31 34 0 0 0
SMALL
GASTEIGER

@<TRIPOS>ATOM
      1 N         142.1342  143.8882  163.2899 N.am    1  UNL1       -0.1663
      2 C         141.8547  142.7745  164.2552 C.2     1  UNL1        0.3232
      3 O         142.0137  141.3477  163.8206 O.2     1  UNL1       -0.2509
      4 N         141.4162  143.0877  165.6551 N.am    1  UNL1       -0.2677
      5 H         142.0298  144.8246  163.5752 H       1  UNL1        0.1782
      6 H         141.3119  144.0242  165.9403 H       1  UNL1        0.1564
      7 C         141.1368  141.9740  166.6203 C.ar    1  UNL1        0.0430
      8 C         142.0009  141.7989  167.8339 C.ar    1  UNL1       -0.0129
      9 C         141.7215  140.6853  168.7991 C.ar    1  UNL1       -0.0253
     10 C         140.5781  139.7467  168.5508 C.ar    1  UNL1       -0.0091
     11 C         139.7140  139.9218  167.3373 C.ar    1  UNL1       -0.0253
     12 C         139.9934  141.0355  166.3720 C.ar    1  UNL1       -0.0129
     13 C         138.9774  140.9604  165.2710 C.3     1  UNL1        0.0276
     14 C         138.0702  139.8004  165.5559 C.3     1  UNL1        0.0094
     15 C         138.5254  139.1585  166.8329 C.3     1  UNL1        0.0264
     16 C         142.7375  140.7603  169.9001 C.3     1  UNL1        0.0264
     17 C         143.6448  141.9204  169.6153 C.3     1  UNL1        0.0094
     18 C         143.1895  142.5622  168.3384 C.3     1  UNL1        0.0276
     19 S         142.5726  143.5750  161.8900 S.O2    1  UNL1        0.1094
     20 O         144.0000  143.8154  162.2833 O.2     1  UNL1       -0.1468
     21 O         141.1452  143.3346  161.4968 O.2     1  UNL1       -0.1468
     22 C         143.9745  142.1291  158.5720 C.ar    1  UNL1        0.0438
     23 C         143.3971  143.4305  158.1000 C.ar    1  UNL1        0.1793
     24 O         142.8016  144.1306  159.2855 O.2     1  UNL1       -0.4325
     25 C         143.0111  143.2618  160.4902 C.ar    1  UNL1        0.2702
     26 C         143.7359  142.0247  160.0492 C.ar    1  UNL1        0.0598
     27 C         145.6350  142.1596  157.2523 C.3     1  UNL1        0.0340
     28 C         144.6686  141.1107  157.7169 C.3     1  UNL1        0.1102
     29 C         143.7021  140.0619  158.1815 C.3     1  UNL1        0.0340
     30 O         145.3626  140.0923  156.8618 O.3     1  UNL1       -0.3826
     31 H         146.1014  140.5123  156.3942 H       1  UNL1        0.2107
@<TRIPOS>BOND
     1    27    28    1
     2    28    29    1
     3    28    30    1
     4    28    22    1
     5    22    23   ar
     6    23    24   ar
     7    24    25   ar
     8    25    19    1
     9    19    20    2
    10    19    21    2
    11    19     1    1
    12     1     2   am
    13     2     3    2
    14     2     4   am
    15     4     7    1
    16     7     8   ar
    17     8     9   ar
    18     9    10   ar
    19    10    11   ar
    20    11    12   ar
    21    12    13    1
    22    13    14    1
    23    14    15    1
    24     9    16    1
    25    16    17    1
    26    17    18    1
    27    25    26   ar
    28    26    22   ar
    29    12     7   ar
    30    18     8    1
    31    15    11    1
    32    30    31    1
    33     1     5    1
    34     4     6    1
@<TRIPOS>MOLECULE
*****
 31 34 0 0 0
SMALL
GASTEIGER

@<TRIPOS>ATOM
      1 N         143.3604  141.1772  162.9539 N.am    1  UNL1       -0.1663
      2 C         142.3443  141.2071  164.0569 C.2     1  UNL1        0.3232
      3 O         141.1056  142.0408  163.9133 O.2     1  UNL1       -0.2509
      4 N         142.5669  140.4032  165.3036 N.am    1  UNL1       -0.2677
      5 H         144.1733  140.6300  163.0481 H       1  UNL1        0.1782
      6 H         143.3798  139.8560  165.3979 H       1  UNL1        0.1564
      7 C         141.5507  140.4332  166.4066 C.ar    1  UNL1        0.0430
      8 C         140.2815  139.6438  166.2788 C.ar    1  UNL1       -0.0129
      9 C         139.2654  139.6737  167.3817 C.ar    1  UNL1       -0.0253
     10 C         139.5184  140.4929  168.6126 C.ar    1  UNL1       -0.0091
     11 C         140.7875  141.2822  168.7404 C.ar    1  UNL1       -0.0253
     12 C         141.8036  141.2523  167.6375 C.ar    1  UNL1       -0.0129
     13 C         142.9534  142.1263  168.0427 C.3     1  UNL1        0.0276
     14 C         142.6478  142.6963  169.3960 C.3     1  UNL1        0.0094
     15 C         141.3092  142.1747  169.8273 C.3     1  UNL1        0.0264
     16 C         138.1157  138.7998  166.9765 C.3     1  UNL1        0.0264
     17 C         138.4212  138.2297  165.6231 C.3     1  UNL1        0.0094
     18 C         139.7598  138.7514  165.1919 C.3     1  UNL1        0.0276
     19 S         143.1378  141.9810  161.7071 S.O2    1  UNL1        0.1094
     20 O         143.8631  143.1397  162.3247 O.2     1  UNL1       -0.1468
     21 O         142.4125  140.8224  161.0896 O.2     1  UNL1       -0.1468
     22 C         142.0098  144.3866  158.8776 C.ar    1  UNL1        0.0438
     23 C         143.1355  143.6571  158.2063 C.ar    1  UNL1        0.1793
     24 O         143.6951  142.6672  159.1846 O.2     1  UNL1       -0.4325
     25 C         142.9152  142.7849  160.4604 C.ar    1  UNL1        0.2702
     26 C         141.8736  143.8476  160.2708 C.ar    1  UNL1        0.0598
     27 C         142.0972  145.5210  157.0872 C.3     1  UNL1        0.0340
     28 C         141.1681  145.4657  158.2636 C.3     1  UNL1        0.1102
     29 C         140.2391  145.4104  159.4399 C.3     1  UNL1        0.0340
     30 O         140.3264  146.5448  157.6496 O.3     1  UNL1       -0.3826
     31 H         140.7113  146.8111  156.8000 H       1  UNL1        0.2107
@<TRIPOS>BOND
     1    27    28    1
     2    28    29    1
     3    28    30    1
     4    28    22    1
     5    22    23   ar
     6    23    24   ar
     7    24    25   ar
     8    25    19    1
     9    19    20    2
    10    19    21    2
    11    19     1    1
    12     1     2   am
    13     2     3    2
    14     2     4   am
    15     4     7    1
    16     7     8   ar
    17     8     9   ar
    18     9    10   ar
    19    10    11   ar
    20    11    12   ar
    21    12    13    1
    22    13    14    1
    23    14    15    1
    24     9    16    1
    25    16    17    1
    26    17    18    1
    27    25    26   ar
    28    26    22   ar
    29    12     7   ar
    30    18     8    1
    31    15    11    1
    32    30    31    1
    33     1     5    1
    34     4     6    1
@<TRIPOS>MOLECULE
*****
 31 34 0 0 0
SMALL
GASTEIGER

@<TRIPOS>ATOM
      1 N         143.3612  141.1597  162.9724 N.am    1  UNL1       -0.1663
      2 C         142.3466  141.1945  164.0767 C.2     1  UNL1        0.3232
      3 O         141.1141  142.0379  163.9366 O.2     1  UNL1       -0.2509
      4 N         142.5646  140.3860  165.3212 N.am    1  UNL1       -0.2677
      5 H         144.1701  140.6062  163.0644 H       1  UNL1        0.1782
      6 H         143.3736  139.8325  165.4132 H       1  UNL1        0.1564
      7 C         141.5500  140.4209  166.4255 C.ar    1  UNL1        0.0430
      8 C         141.8087  141.2387  167.6561 C.ar    1  UNL1       -0.0129
      9 C         140.7943  141.2736  168.7604 C.ar    1  UNL1       -0.0253
     10 C         139.5210  140.4908  168.6342 C.ar    1  UNL1       -0.0091
     11 C         139.2623  139.6730  167.4036 C.ar    1  UNL1       -0.0253
     12 C         140.2768  139.6381  166.2993 C.ar    1  UNL1       -0.0129
     13 C         139.7491  138.7484  165.2130 C.3     1  UNL1        0.0276
     14 C         138.4085  138.2335  165.6460 C.3     1  UNL1        0.0094
     15 C         138.1075  138.8049  166.9998 C.3     1  UNL1        0.0264
     16 C         141.3219  142.1633  169.8467 C.3     1  UNL1        0.0264
     17 C         142.6627  142.6782  169.4137 C.3     1  UNL1        0.0094
     18 C         142.9634  142.1068  168.0599 C.3     1  UNL1        0.0276
     19 S         143.1432  141.9683  161.7279 S.O2    1  UNL1        0.1094
     20 O         142.3171  140.8572  161.1508 O.2     1  UNL1       -0.1468
     21 O         143.9693  143.0793  162.3050 O.2     1  UNL1       -0.1468
     22 C         142.0181  144.3762  158.8993 C.ar    1  UNL1        0.0438
     23 C         143.1613  143.6657  158.2374 C.ar    1  UNL1        0.1793
     24 O         143.7220  142.6772  159.2165 O.2     1  UNL1       -0.4325
     25 C         142.9252  142.7768  160.4834 C.ar    1  UNL1        0.2702
     26 C         141.8721  143.8268  160.2874 C.ar    1  UNL1        0.0598
     27 C         142.1088  145.5183  157.1139 C.3     1  UNL1        0.0340
     28 C         141.1697  145.4479  158.2815 C.3     1  UNL1        0.1102
     29 C         140.2306  145.3776  159.4490 C.3     1  UNL1        0.0340
     30 O         140.3213  146.5196  157.6637 O.3     1  UNL1       -0.3826
     31 H         140.7110  146.7936  156.8187 H       1  UNL1        0.2107
@<TRIPOS>BOND
     1    27    28    1
     2    28    29    1
     3    28    30    1
     4    28    22    1
     5    22    23   ar
     6    23    24   ar
     7    24    25   ar
     8    25    19    1
     9    19    20    2
    10    19    21    2
    11    19     1    1
    12     1     2   am
    13     2     3    2
    14     2     4   am
    15     4     7    1
    16     7     8   ar
    17     8     9   ar
    18     9    10   ar
    19    10    11   ar
    20    11    12   ar
    21    12    13    1
    22    13    14    1
    23    14    15    1
    24     9    16    1
    25    16    17    1
    26    17    18    1
    27    25    26   ar
    28    26    22   ar
    29    12     7   ar
    30    18     8    1
    31    15    11    1
    32    30    31    1
    33     1     5    1
    34     4     6    1
@<TRIPOS>MOLECULE
*****
 31 34 0 0 0
SMALL
GASTEIGER

@<TRIPOS>ATOM
      1 N         141.8899  145.5633  159.3954 N.am    1  UNL1       -0.1663
      2 C         141.8318  144.6372  160.5739 C.2     1  UNL1        0.3232
      3 O         141.2704  143.2553  160.4150 O.2     1  UNL1       -0.2509
      4 N         142.3351  145.0930  161.9114 N.am    1  UNL1       -0.2677
      5 H         142.2583  146.4702  159.4997 H       1  UNL1        0.1782
      6 H         142.7036  146.0000  162.0158 H       1  UNL1        0.1564
      7 C         142.2770  144.1669  163.0900 C.ar    1  UNL1        0.0430
      8 C         141.0826  144.1817  163.9974 C.ar    1  UNL1       -0.0129
      9 C         141.0244  143.2557  165.1759 C.ar    1  UNL1       -0.0253
     10 C         142.1606  142.3147  165.4471 C.ar    1  UNL1       -0.0091
     11 C         143.3550  142.2998  164.5398 C.ar    1  UNL1       -0.0253
     12 C         143.4132  143.2259  163.3612 C.ar    1  UNL1       -0.0129
     13 C         144.7108  142.9872  162.6477 C.3     1  UNL1        0.0276
     14 C         145.4546  141.9136  163.3854 C.3     1  UNL1        0.0094
     15 C         144.6167  141.4887  164.5547 C.3     1  UNL1        0.0264
     16 C         139.7267  143.4944  165.8893 C.3     1  UNL1        0.0264
     17 C         138.9828  144.5680  165.1517 C.3     1  UNL1        0.0094
     18 C         139.8208  144.9928  163.9825 C.3     1  UNL1        0.0276
     19 S         141.3865  145.1075  158.0579 S.O2    1  UNL1        0.1094
     20 O         142.7120  144.4632  157.7786 O.2     1  UNL1       -0.1468
     21 O         140.0611  145.7517  158.3371 O.2     1  UNL1       -0.1468
     22 C         139.4261  144.2117  154.8300 C.ar    1  UNL1        0.0438
     23 C         140.7913  143.6888  154.4944 C.ar    1  UNL1        0.1793
     24 O         141.6919  143.9607  155.6628 O.2     1  UNL1       -0.4325
     25 C         140.8832  144.6517  156.7204 C.ar    1  UNL1        0.2702
     26 C         139.4828  144.8068  156.2057 C.ar    1  UNL1        0.0598
     27 C         138.9513  143.2429  153.0035 C.3     1  UNL1        0.0340
     28 C         138.2164  144.1503  153.9451 C.3     1  UNL1        0.1102
     29 C         137.4816  145.0577  154.8867 C.3     1  UNL1        0.0340
     30 O         137.0068  144.0890  153.0603 O.3     1  UNL1       -0.3826
     31 H         137.1940  143.5225  152.2955 H       1  UNL1        0.2107
@<TRIPOS>BOND
     1    27    28    1
     2    28    29    1
     3    28    30    1
     4    28    22    1
     5    22    23   ar
     6    23    24   ar
     7    24    25   ar
     8    25    19    1
     9    19    20    2
    10    19    21    2
    11    19     1    1
    12     1     2   am
    13     2     3    2
    14     2     4   am
    15     4     7    1
    16     7     8   ar
    17     8     9   ar
    18     9    10   ar
    19    10    11   ar
    20    11    12   ar
    21    12    13    1
    22    13    14    1
    23    14    15    1
    24     9    16    1
    25    16    17    1
    26    17    18    1
    27    25    26   ar
    28    26    22   ar
    29    12     7   ar
    30    18     8    1
    31    15    11    1
    32    30    31    1
    33     1     5    1
    34     4     6    1
