@<TRIPOS>MOLECULE
*****
 34 38 0 0 0
SMALL
GASTEIGER

@<TRIPOS>ATOM
      1 O         143.2735  138.5312  168.9460 O.2     1  UNL1       -0.2699
      2 C         142.5018  139.5807  168.2023 C.2     1  UNL1        0.2494
      3 N         142.5835  139.6525  166.7062 N.am    1  UNL1       -0.2761
      4 C         143.4368  138.6748  165.9539 C.3     1  UNL1        0.0937
      5 C         143.5184  138.7466  164.4579 C.3     1  UNL1        0.0217
      6 C         142.7467  139.7961  163.7142 C.3     1  UNL1        0.0060
      7 C         143.6000  138.8184  162.9618 C.3     1  UNL1        0.0175
      8 C         143.6816  138.8902  161.4657 C.3     1  UNL1        0.0724
      9 N         142.9099  139.9396  160.7220 N.3     1  UNL1       -0.2690
     10 C         142.0566  140.9173  161.4743 C.3     1  UNL1        0.0724
     11 C         141.9750  140.8455  162.9704 C.3     1  UNL1        0.0175
     12 C         141.8934  140.7737  164.4665 C.3     1  UNL1        0.0217
     13 C         141.8118  140.7019  165.9625 C.3     1  UNL1        0.0937
     14 C         141.6485  140.5584  168.9546 C.ar    1  UNL1        0.0659
     15 C         142.2092  141.8910  169.3541 C.ar    1  UNL1        0.0817
     16 C         141.3558  142.8687  170.1065 C.ar    1  UNL1        0.3019
     17 N         139.9419  142.5137  170.4593 N.ar    1  UNL1       -0.1519
     18 O         139.0886  143.4914  171.2116 O.co2   1  UNL1       -0.6187
     19 C         139.3812  141.1810  170.0598 C.ar    1  UNL1        0.3019
     20 C         140.2345  140.2034  169.3075 C.ar    1  UNL1        0.0817
     21 C         142.9915  140.0114  159.2259 C.3     1  UNL1        0.0992
     22 C         142.1227  139.1247  158.3840 C.ar    1  UNL1       -0.0031
     23 C         140.6304  139.1861  158.5230 C.ar    1  UNL1       -0.0027
     24 C         139.7617  138.2994  157.6811 C.ar    1  UNL1        0.0029
     25 C         140.3851  137.3512  156.7001 C.ar    1  UNL1        0.0375
     26 C         141.8774  137.2897  156.5611 C.ar    1  UNL1        0.1450
     27 C         142.7462  138.1765  157.4031 C.ar    1  UNL1        0.0346
     28 O         142.5009  136.3416  155.5802 O.3     1  UNL1       -0.4535
     29 C         142.5552  134.8742  155.8864 C.ar    1  UNL1        0.1453
     30 C         143.5070  134.3594  156.9252 C.ar    1  UNL1        0.0375
     31 C         143.5612  132.8919  157.2313 C.ar    1  UNL1        0.0031
     32 C         142.6637  131.9393  156.4986 C.ar    1  UNL1        0.0002
     33 C         141.7119  132.4540  155.4598 C.ar    1  UNL1        0.0031
     34 C         141.6576  133.9214  155.1537 C.ar    1  UNL1        0.0375
@<TRIPOS>UNITY_ATOM_ATTR
17 1
charge 1
18 1
charge -1
@<TRIPOS>BOND
     1     1     2    2
     2     2    14    1
     3    14    15   ar
     4    15    16   ar
     5    16    17   ar
     6    17    18    1
     7    17    19   ar
     8    19    20   ar
     9     2     3   am
    10     3     4    1
    11     4     5    1
    12     5     6    1
    13     6     7    1
    14     7     8    1
    15     8     9    1
    16     9    21    1
    17    21    22    1
    18    22    23   ar
    19    23    24   ar
    20    24    25   ar
    21    25    26   ar
    22    26    28    1
    23    28    29    1
    24    29    30   ar
    25    30    31   ar
    26    31    32   ar
    27    32    33   ar
    28    33    34   ar
    29    26    27   ar
    30     9    10    1
    31    10    11    1
    32     6    12    1
    33    12    13    1
    34    20    14   ar
    35    13     3    1
    36    11     6    1
    37    27    22   ar
    38    34    29   ar
@<TRIPOS>MOLECULE
*****
 34 38 0 0 0
SMALL
GASTEIGER

@<TRIPOS>ATOM
      1 O         143.3279  138.6877  168.4087 O.2     1  UNL1       -0.2699
      2 C         142.2569  139.5303  167.7818 C.2     1  UNL1        0.2494
      3 N         141.9527  139.3909  166.3195 N.am    1  UNL1       -0.2761
      4 C         142.7195  138.4089  165.4843 C.3     1  UNL1        0.0937
      5 C         142.4152  138.2696  164.0221 C.3     1  UNL1        0.0217
      6 C         141.3442  139.1121  163.3952 C.3     1  UNL1        0.0060
      7 C         142.1110  138.1301  162.5598 C.3     1  UNL1        0.0175
      8 C         141.8068  137.9908  161.0977 C.3     1  UNL1        0.0724
      9 N         140.7358  138.8333  160.4708 N.3     1  UNL1       -0.2690
     10 C         139.9690  139.8153  161.3061 C.3     1  UNL1        0.0724
     11 C         140.2732  139.9547  162.7683 C.3     1  UNL1        0.0175
     12 C         140.5774  140.0941  164.2305 C.3     1  UNL1        0.0217
     13 C         140.8817  140.2335  165.6927 C.3     1  UNL1        0.0937
     14 C         141.4901  140.5123  168.6171 C.ar    1  UNL1        0.0659
     15 C         142.0408  141.8875  168.8527 C.ar    1  UNL1        0.0817
     16 C         141.2739  142.8695  169.6880 C.ar    1  UNL1        0.3019
     17 N         139.9565  142.4762  170.2877 N.ar    1  UNL1       -0.1519
     18 O         139.1897  143.4581  171.1230 O.co2   1  UNL1       -0.6187
     19 C         139.4058  141.1010  170.0521 C.ar    1  UNL1        0.3019
     20 C         140.1726  140.1190  169.2168 C.ar    1  UNL1        0.0817
     21 C         140.4316  138.6939  159.0086 C.3     1  UNL1        0.0992
     22 C         141.5220  138.8766  157.9949 C.ar    1  UNL1       -0.0031
     23 C         141.8470  140.2481  157.4818 C.ar    1  UNL1       -0.0027
     24 C         142.9374  140.4307  156.4681 C.ar    1  UNL1        0.0029
     25 C         143.7029  139.2418  155.9675 C.ar    1  UNL1        0.0375
     26 C         143.3779  137.8703  156.4807 C.ar    1  UNL1        0.1450
     27 C         142.2874  137.6877  157.4944 C.ar    1  UNL1        0.0346
     28 O         144.1434  136.6814  155.9801 O.3     1  UNL1       -0.4535
     29 C         143.4704  135.3447  155.8784 C.ar    1  UNL1        0.1453
     30 C         142.5649  135.0472  154.7202 C.ar    1  UNL1        0.0375
     31 C         141.8919  133.7104  154.6185 C.ar    1  UNL1        0.0031
     32 C         142.1244  132.6713  155.6750 C.ar    1  UNL1        0.0002
     33 C         143.0299  132.9689  156.8332 C.ar    1  UNL1        0.0031
     34 C         143.7029  134.3056  156.9349 C.ar    1  UNL1        0.0375
@<TRIPOS>UNITY_ATOM_ATTR
17 1
charge 1
18 1
charge -1
@<TRIPOS>BOND
     1     1     2    2
     2     2    14    1
     3    14    15   ar
     4    15    16   ar
     5    16    17   ar
     6    17    18    1
     7    17    19   ar
     8    19    20   ar
     9     2     3   am
    10     3     4    1
    11     4     5    1
    12     5     6    1
    13     6     7    1
    14     7     8    1
    15     8     9    1
    16     9    21    1
    17    21    22    1
    18    22    23   ar
    19    23    24   ar
    20    24    25   ar
    21    25    26   ar
    22    26    28    1
    23    28    29    1
    24    29    30   ar
    25    30    31   ar
    26    31    32   ar
    27    32    33   ar
    28    33    34   ar
    29    26    27   ar
    30     9    10    1
    31    10    11    1
    32     6    12    1
    33    12    13    1
    34    20    14   ar
    35    13     3    1
    36    11     6    1
    37    27    22   ar
    38    34    29   ar
@<TRIPOS>MOLECULE
*****
 34 38 0 0 0
SMALL
GASTEIGER

@<TRIPOS>ATOM
      1 O         139.3226  138.4662  157.2084 O.2     1  UNL1       -0.2699
      2 C         138.7927  139.6183  158.0096 C.2     1  UNL1        0.2494
      3 N         138.7155  139.5197  159.5044 N.am    1  UNL1       -0.2761
      4 C         139.1682  138.2692  160.1979 C.3     1  UNL1        0.0937
      5 C         139.0911  138.1706  161.6926 C.3     1  UNL1        0.0217
      6 C         138.5612  139.3227  162.4939 C.3     1  UNL1        0.0060
      7 C         139.0139  138.0721  163.1875 C.3     1  UNL1        0.0175
      8 C         138.9368  137.9736  164.6822 C.3     1  UNL1        0.0724
      9 N         138.4069  139.1257  165.4834 N.3     1  UNL1       -0.2690
     10 C         137.9542  140.3763  164.7899 C.3     1  UNL1        0.0724
     11 C         138.0313  140.4748  163.2951 C.3     1  UNL1        0.0175
     12 C         138.1085  140.5733  161.8003 C.3     1  UNL1        0.0217
     13 C         138.1857  140.6718  160.3056 C.3     1  UNL1        0.0937
     14 C         138.3400  140.8689  157.3160 C.ar    1  UNL1        0.0659
     15 C         139.2746  142.0349  157.1864 C.ar    1  UNL1        0.0817
     16 C         138.8218  143.2856  156.4928 C.ar    1  UNL1        0.3019
     17 N         137.4345  143.3701  155.9289 N.ar    1  UNL1       -0.1519
     18 O         136.9818  144.6207  155.2354 O.co2   1  UNL1       -0.6187
     19 C         136.4998  142.2041  156.0585 C.ar    1  UNL1        0.3019
     20 C         136.9525  140.9535  156.7521 C.ar    1  UNL1        0.0817
     21 C         138.3297  139.0271  166.9782 C.3     1  UNL1        0.0992
     22 C         139.2868  139.8054  167.8316 C.ar    1  UNL1       -0.0031
     23 C         138.9405  140.1122  169.2585 C.ar    1  UNL1       -0.0027
     24 C         139.8976  140.8905  170.1118 C.ar    1  UNL1        0.0029
     25 C         141.2010  141.3620  169.5382 C.ar    1  UNL1        0.0375
     26 C         141.5473  141.0552  168.1114 C.ar    1  UNL1        0.1450
     27 C         140.5901  140.2769  167.2580 C.ar    1  UNL1        0.0346
     28 O         142.8506  141.5267  167.5378 O.3     1  UNL1       -0.4535
     29 C         142.8594  142.4558  166.3603 C.ar    1  UNL1        0.1453
     30 C         144.1560  143.0197  165.8595 C.ar    1  UNL1        0.0375
     31 C         144.1647  143.9489  164.6819 C.ar    1  UNL1        0.0031
     32 C         142.8769  144.3140  164.0051 C.ar    1  UNL1        0.0002
     33 C         141.5803  143.7501  164.5058 C.ar    1  UNL1        0.0031
     34 C         141.5715  142.8210  165.6834 C.ar    1  UNL1        0.0375
@<TRIPOS>UNITY_ATOM_ATTR
17 1
charge 1
18 1
charge -1
@<TRIPOS>BOND
     1     1     2    2
     2     2    14    1
     3    14    15   ar
     4    15    16   ar
     5    16    17   ar
     6    17    18    1
     7    17    19   ar
     8    19    20   ar
     9     2     3   am
    10     3     4    1
    11     4     5    1
    12     5     6    1
    13     6     7    1
    14     7     8    1
    15     8     9    1
    16     9    21    1
    17    21    22    1
    18    22    23   ar
    19    23    24   ar
    20    24    25   ar
    21    25    26   ar
    22    26    28    1
    23    28    29    1
    24    29    30   ar
    25    30    31   ar
    26    31    32   ar
    27    32    33   ar
    28    33    34   ar
    29    26    27   ar
    30     9    10    1
    31    10    11    1
    32     6    12    1
    33    12    13    1
    34    20    14   ar
    35    13     3    1
    36    11     6    1
    37    27    22   ar
    38    34    29   ar
@<TRIPOS>MOLECULE
*****
 34 38 0 0 0
SMALL
GASTEIGER

@<TRIPOS>ATOM
      1 O         138.5247  139.5501  169.4088 O.2     1  UNL1       -0.2699
      2 C         139.5391  140.2205  168.5304 C.2     1  UNL1        0.2494
      3 N         139.5360  139.9663  167.0521 N.am    1  UNL1       -0.2761
      4 C         138.5185  139.0417  166.4522 C.3     1  UNL1        0.0937
      5 C         138.5154  138.7876  164.9739 C.3     1  UNL1        0.0217
      6 C         139.5298  139.4580  164.0955 C.3     1  UNL1        0.0060
      7 C         138.5123  138.5334  163.4956 C.3     1  UNL1        0.0175
      8 C         138.5092  138.2793  162.0173 C.3     1  UNL1        0.0724
      9 N         139.5236  138.9497  161.1389 N.3     1  UNL1       -0.2690
     10 C         140.5411  139.8742  161.7388 C.3     1  UNL1        0.0724
     11 C         140.5442  140.1284  163.2171 C.3     1  UNL1        0.0175
     12 C         140.5473  140.3826  164.6954 C.3     1  UNL1        0.0217
     13 C         140.5504  140.6367  166.1737 C.3     1  UNL1        0.0937
     14 C         140.5566  141.1451  169.1303 C.ar    1  UNL1        0.0659
     15 C         140.2267  142.5945  169.3312 C.ar    1  UNL1        0.0817
     16 C         141.2443  143.5191  169.9311 C.ar    1  UNL1        0.3019
     17 N         142.5916  142.9942  170.3301 N.ar    1  UNL1       -0.1519
     18 O         143.6090  143.9188  170.9300 O.co2   1  UNL1       -0.6187
     19 C         142.9214  141.5448  170.1293 C.ar    1  UNL1        0.3019
     20 C         141.9039  140.6202  169.5294 C.ar    1  UNL1        0.0817
     21 C         139.5205  138.6955  159.6605 C.3     1  UNL1        0.0992
     22 C         140.6686  139.1639  158.8166 C.ar    1  UNL1       -0.0031
     23 C         140.8482  140.6272  158.5400 C.ar    1  UNL1       -0.0027
     24 C         141.9963  141.0956  157.6960 C.ar    1  UNL1        0.0029
     25 C         142.9650  140.1007  157.1286 C.ar    1  UNL1        0.0375
     26 C         142.7854  138.6374  157.4052 C.ar    1  UNL1        0.1450
     27 C         141.6372  138.1690  158.2492 C.ar    1  UNL1        0.0346
     28 O         143.7540  137.6425  156.8378 O.3     1  UNL1       -0.4535
     29 C         143.2469  136.4378  156.1019 C.ar    1  UNL1        0.1453
     30 C         142.7858  136.5664  154.6803 C.ar    1  UNL1        0.0375
     31 C         142.2787  135.3617  153.9444 C.ar    1  UNL1        0.0031
     32 C         142.2326  134.0284  154.6300 C.ar    1  UNL1        0.0002
     33 C         142.6937  133.8998  156.0516 C.ar    1  UNL1        0.0031
     34 C         143.2008  135.1044  156.7875 C.ar    1  UNL1        0.0375
@<TRIPOS>UNITY_ATOM_ATTR
17 1
charge 1
18 1
charge -1
@<TRIPOS>BOND
     1     1     2    2
     2     2    14    1
     3    14    15   ar
     4    15    16   ar
     5    16    17   ar
     6    17    18    1
     7    17    19   ar
     8    19    20   ar
     9     2     3   am
    10     3     4    1
    11     4     5    1
    12     5     6    1
    13     6     7    1
    14     7     8    1
    15     8     9    1
    16     9    21    1
    17    21    22    1
    18    22    23   ar
    19    23    24   ar
    20    24    25   ar
    21    25    26   ar
    22    26    28    1
    23    28    29    1
    24    29    30   ar
    25    30    31   ar
    26    31    32   ar
    27    32    33   ar
    28    33    34   ar
    29    26    27   ar
    30     9    10    1
    31    10    11    1
    32     6    12    1
    33    12    13    1
    34    20    14   ar
    35    13     3    1
    36    11     6    1
    37    27    22   ar
    38    34    29   ar
@<TRIPOS>MOLECULE
*****
 34 38 0 0 0
SMALL
GASTEIGER

@<TRIPOS>ATOM
      1 O         144.2109  142.7915  157.6675 O.2     1  UNL1       -0.2699
      2 C         143.0634  143.3235  158.4739 C.2     1  UNL1        0.2494
      3 N         143.0345  143.1228  159.9602 N.am    1  UNL1       -0.2761
      4 C         144.1530  142.3902  160.6399 C.3     1  UNL1        0.0937
      5 C         144.1240  142.1895  162.1262 C.3     1  UNL1        0.0217
      6 C         142.9766  142.7215  162.9326 C.3     1  UNL1        0.0060
      7 C         144.0951  141.9889  163.6124 C.3     1  UNL1        0.0175
      8 C         144.0662  141.7882  165.0986 C.3     1  UNL1        0.0724
      9 N         142.9187  142.3202  165.9051 N.3     1  UNL1       -0.2690
     10 C         141.8002  143.0529  165.2253 C.3     1  UNL1        0.0724
     11 C         141.8292  143.2536  163.7390 C.3     1  UNL1        0.0175
     12 C         141.8581  143.4542  162.2528 C.3     1  UNL1        0.0217
     13 C         141.8871  143.6548  160.7666 C.3     1  UNL1        0.0937
     14 C         141.9449  144.0562  157.7941 C.ar    1  UNL1        0.0659
     15 C         142.0728  145.5235  157.5101 C.ar    1  UNL1        0.0817
     16 C         140.9543  146.2561  156.8303 C.ar    1  UNL1        0.3019
     17 N         139.7078  145.5215  156.4345 N.ar    1  UNL1       -0.1519
     18 O         138.5894  146.2541  155.7547 O.co2   1  UNL1       -0.6187
     19 C         139.5799  144.0542  156.7185 C.ar    1  UNL1        0.3019
     20 C         140.6984  143.3215  157.3983 C.ar    1  UNL1        0.0817
     21 C         142.8898  142.1196  167.3914 C.3     1  UNL1        0.0992
     22 C         141.6442  141.6124  168.0556 C.ar    1  UNL1       -0.0031
     23 C         141.2319  142.1563  169.3913 C.ar    1  UNL1       -0.0027
     24 C         139.9863  141.6491  170.0556 C.ar    1  UNL1        0.0029
     25 C         139.1530  140.5980  169.3841 C.ar    1  UNL1        0.0375
     26 C         139.5653  140.0541  168.0484 C.ar    1  UNL1        0.1450
     27 C         140.8110  140.5613  167.3841 C.ar    1  UNL1        0.0346
     28 O         138.7321  139.0030  167.3769 O.3     1  UNL1       -0.4535
     29 C         138.6435  138.9592  165.8802 C.ar    1  UNL1        0.1453
     30 C         138.1622  140.1606  165.1219 C.ar    1  UNL1        0.0375
     31 C         138.0735  140.1168  163.6251 C.ar    1  UNL1        0.0031
     32 C         138.4662  138.8716  162.8867 C.ar    1  UNL1        0.0002
     33 C         138.9475  137.6702  163.6450 C.ar    1  UNL1        0.0031
     34 C         139.0362  137.7140  165.1417 C.ar    1  UNL1        0.0375
@<TRIPOS>UNITY_ATOM_ATTR
17 1
charge 1
18 1
charge -1
@<TRIPOS>BOND
     1     1     2    2
     2     2    14    1
     3    14    15   ar
     4    15    16   ar
     5    16    17   ar
     6    17    18    1
     7    17    19   ar
     8    19    20   ar
     9     2     3   am
    10     3     4    1
    11     4     5    1
    12     5     6    1
    13     6     7    1
    14     7     8    1
    15     8     9    1
    16     9    21    1
    17    21    22    1
    18    22    23   ar
    19    23    24   ar
    20    24    25   ar
    21    25    26   ar
    22    26    28    1
    23    28    29    1
    24    29    30   ar
    25    30    31   ar
    26    31    32   ar
    27    32    33   ar
    28    33    34   ar
    29    26    27   ar
    30     9    10    1
    31    10    11    1
    32     6    12    1
    33    12    13    1
    34    20    14   ar
    35    13     3    1
    36    11     6    1
    37    27    22   ar
    38    34    29   ar
@<TRIPOS>MOLECULE
*****
 34 38 0 0 0
SMALL
GASTEIGER

@<TRIPOS>ATOM
      1 O         144.6811  137.6198  155.7124 O.2     1  UNL1       -0.2699
      2 C         143.3906  137.1636  156.3260 C.2     1  UNL1        0.2494
      3 N         142.5842  138.1090  157.1664 N.am    1  UNL1       -0.2761
      4 C         143.0683  139.5104  157.3931 C.3     1  UNL1        0.0937
      5 C         142.2620  140.4557  158.2334 C.3     1  UNL1        0.0217
      6 C         140.9715  139.9995  158.8470 C.3     1  UNL1        0.0060
      7 C         141.4556  141.4011  159.0737 C.3     1  UNL1        0.0175
      8 C         140.6492  142.3464  159.9140 C.3     1  UNL1        0.0724
      9 N         139.3587  141.8902  160.5276 N.3     1  UNL1       -0.2690
     10 C         138.8746  140.4887  160.3009 C.3     1  UNL1        0.0724
     11 C         139.6810  139.5433  159.4605 C.3     1  UNL1        0.0175
     12 C         140.4873  138.5981  158.6202 C.3     1  UNL1        0.0217
     13 C         141.2937  137.6528  157.7799 C.3     1  UNL1        0.0937
     14 C         142.9065  135.7621  156.0993 C.ar    1  UNL1        0.0659
     15 C         141.9299  135.4750  154.9975 C.ar    1  UNL1        0.0817
     16 C         141.4458  134.0734  154.7708 C.ar    1  UNL1        0.3019
     17 N         141.9382  132.9591  155.6459 N.ar    1  UNL1       -0.1519
     18 O         141.4540  131.5576  155.4192 O.co2   1  UNL1       -0.6187
     19 C         142.9147  133.2462  156.7477 C.ar    1  UNL1        0.3019
     20 C         143.3989  134.6477  156.9744 C.ar    1  UNL1        0.0817
     21 C         138.5523  142.8356  161.3679 C.3     1  UNL1        0.0992
     22 C         138.9601  143.1145  162.7842 C.ar    1  UNL1       -0.0031
     23 C         138.3737  144.2847  163.5169 C.ar    1  UNL1       -0.0027
     24 C         138.7815  144.5636  164.9332 C.ar    1  UNL1        0.0029
     25 C         139.7757  143.6724  165.6168 C.ar    1  UNL1        0.0375
     26 C         140.3621  142.5022  164.8841 C.ar    1  UNL1        0.1450
     27 C         139.9542  142.2233  163.4678 C.ar    1  UNL1        0.0346
     28 O         141.3562  141.6110  165.5677 O.3     1  UNL1       -0.4535
     29 C         142.7559  141.5045  165.0390 C.ar    1  UNL1        0.1453
     30 C         143.5873  142.7406  164.8632 C.ar    1  UNL1        0.0375
     31 C         144.9870  142.6341  164.3345 C.ar    1  UNL1        0.0031
     32 C         145.5552  141.2915  163.9815 C.ar    1  UNL1        0.0002
     33 C         144.7238  140.0555  164.1572 C.ar    1  UNL1        0.0031
     34 C         143.3242  140.1619  164.6859 C.ar    1  UNL1        0.0375
@<TRIPOS>UNITY_ATOM_ATTR
17 1
charge 1
18 1
charge -1
@<TRIPOS>BOND
     1     1     2    2
     2     2    14    1
     3    14    15   ar
     4    15    16   ar
     5    16    17   ar
     6    17    18    1
     7    17    19   ar
     8    19    20   ar
     9     2     3   am
    10     3     4    1
    11     4     5    1
    12     5     6    1
    13     6     7    1
    14     7     8    1
    15     8     9    1
    16     9    21    1
    17    21    22    1
    18    22    23   ar
    19    23    24   ar
    20    24    25   ar
    21    25    26   ar
    22    26    28    1
    23    28    29    1
    24    29    30   ar
    25    30    31   ar
    26    31    32   ar
    27    32    33   ar
    28    33    34   ar
    29    26    27   ar
    30     9    10    1
    31    10    11    1
    32     6    12    1
    33    12    13    1
    34    20    14   ar
    35    13     3    1
    36    11     6    1
    37    27    22   ar
    38    34    29   ar
@<TRIPOS>MOLECULE
*****
 34 38 0 0 0
SMALL
GASTEIGER

@<TRIPOS>ATOM
      1 O         144.7650  137.6390  155.7213 O.2     1  UNL1       -0.2699
      2 C         143.4659  137.1389  156.2800 C.2     1  UNL1        0.2494
      3 N         142.5969  138.0534  157.0916 N.am    1  UNL1       -0.2761
      4 C         143.0271  139.4679  157.3445 C.3     1  UNL1        0.0937
      5 C         142.1582  140.3824  158.1561 C.3     1  UNL1        0.0217
      6 C         140.8590  139.8823  158.7148 C.3     1  UNL1        0.0060
      7 C         141.2892  141.2969  158.9677 C.3     1  UNL1        0.0175
      8 C         140.4203  142.2113  159.7793 C.3     1  UNL1        0.0724
      9 N         139.1211  141.7112  160.3380 N.3     1  UNL1       -0.2690
     10 C         138.6909  140.2967  160.0851 C.3     1  UNL1        0.0724
     11 C         139.5599  139.3822  159.2735 C.3     1  UNL1        0.0175
     12 C         140.4288  138.4677  158.4619 C.3     1  UNL1        0.0217
     13 C         141.2978  137.5533  157.6503 C.3     1  UNL1        0.0937
     14 C         143.0357  135.7244  156.0271 C.ar    1  UNL1        0.0659
     15 C         142.3005  135.3781  154.7663 C.ar    1  UNL1        0.0817
     16 C         141.8703  133.9635  154.5134 C.ar    1  UNL1        0.3019
     17 N         142.1752  132.8952  155.5213 N.ar    1  UNL1       -0.1519
     18 O         141.7450  131.4807  155.2684 O.co2   1  UNL1       -0.6187
     19 C         142.9104  133.2416  156.7821 C.ar    1  UNL1        0.3019
     20 C         143.3406  134.6561  157.0350 C.ar    1  UNL1        0.0817
     21 C         138.2522  142.6257  161.1497 C.3     1  UNL1        0.0992
     22 C         138.6547  142.9996  162.5454 C.ar    1  UNL1       -0.0031
     23 C         138.7316  144.4441  162.9422 C.ar    1  UNL1       -0.0027
     24 C         139.1341  144.8181  164.3379 C.ar    1  UNL1        0.0029
     25 C         139.4597  143.7475  165.3369 C.ar    1  UNL1        0.0375
     26 C         139.3828  142.3030  164.9401 C.ar    1  UNL1        0.1450
     27 C         138.9803  141.9291  163.5443 C.ar    1  UNL1        0.0346
     28 O         139.7084  141.2324  165.9390 O.3     1  UNL1       -0.4535
     29 C         140.1292  139.8715  165.4694 C.ar    1  UNL1        0.1453
     30 C         139.1027  138.7957  165.2715 C.ar    1  UNL1        0.0375
     31 C         139.5236  137.4347  164.8018 C.ar    1  UNL1        0.0031
     32 C         140.9709  137.1494  164.5301 C.ar    1  UNL1        0.0002
     33 C         141.9974  138.2252  164.7279 C.ar    1  UNL1        0.0031
     34 C         141.5766  139.5861  165.1975 C.ar    1  UNL1        0.0375
@<TRIPOS>UNITY_ATOM_ATTR
17 1
charge 1
18 1
charge -1
@<TRIPOS>BOND
     1     1     2    2
     2     2    14    1
     3    14    15   ar
     4    15    16   ar
     5    16    17   ar
     6    17    18    1
     7    17    19   ar
     8    19    20   ar
     9     2     3   am
    10     3     4    1
    11     4     5    1
    12     5     6    1
    13     6     7    1
    14     7     8    1
    15     8     9    1
    16     9    21    1
    17    21    22    1
    18    22    23   ar
    19    23    24   ar
    20    24    25   ar
    21    25    26   ar
    22    26    28    1
    23    28    29    1
    24    29    30   ar
    25    30    31   ar
    26    31    32   ar
    27    32    33   ar
    28    33    34   ar
    29    26    27   ar
    30     9    10    1
    31    10    11    1
    32     6    12    1
    33    12    13    1
    34    20    14   ar
    35    13     3    1
    36    11     6    1
    37    27    22   ar
    38    34    29   ar
@<TRIPOS>MOLECULE
*****
 34 38 0 0 0
SMALL
GASTEIGER

@<TRIPOS>ATOM
      1 O         138.7708  140.8727  155.6875 O.2     1  UNL1       -0.2699
      2 C         138.6933  141.9397  156.7389 C.2     1  UNL1        0.2494
      3 N         138.6035  141.5603  158.1874 N.am    1  UNL1       -0.2761
      4 C         138.5911  140.1138  158.5844 C.3     1  UNL1        0.0937
      5 C         138.5012  139.7344  160.0328 C.3     1  UNL1        0.0217
      6 C         138.4238  140.8015  161.0842 C.3     1  UNL1        0.0060
      7 C         138.4114  139.3550  161.4813 C.3     1  UNL1        0.0175
      8 C         138.3215  138.9756  162.9297 C.3     1  UNL1        0.0724
      9 N         138.2441  140.0426  163.9811 N.3     1  UNL1       -0.2690
     10 C         138.2565  141.4890  163.5841 C.3     1  UNL1        0.0724
     11 C         138.3464  141.8685  162.1357 C.3     1  UNL1        0.0175
     12 C         138.4362  142.2479  160.6872 C.3     1  UNL1        0.0217
     13 C         138.5260  142.6273  159.2388 C.3     1  UNL1        0.0937
     14 C         138.7057  143.3861  156.3419 C.ar    1  UNL1        0.0659
     15 C         137.6188  143.9323  155.4642 C.ar    1  UNL1        0.0817
     16 C         137.6313  145.3788  155.0672 C.ar    1  UNL1        0.3019
     17 N         138.7306  146.2791  155.5479 N.ar    1  UNL1       -0.1519
     18 O         138.7430  147.7255  155.1509 O.co2   1  UNL1       -0.6187
     19 C         139.8175  145.7329  156.4256 C.ar    1  UNL1        0.3019
     20 C         139.8051  144.2864  156.8226 C.ar    1  UNL1        0.0817
     21 C         138.1543  139.6632  165.4296 C.3     1  UNL1        0.0992
     22 C         139.3718  139.7411  166.3023 C.ar    1  UNL1       -0.0031
     23 C         139.2235  139.9602  167.7788 C.ar    1  UNL1       -0.0027
     24 C         140.4410  140.0382  168.6514 C.ar    1  UNL1        0.0029
     25 C         141.8069  139.8971  168.0476 C.ar    1  UNL1        0.0375
     26 C         141.9552  139.6780  166.5711 C.ar    1  UNL1        0.1450
     27 C         140.7376  139.6000  165.6984 C.ar    1  UNL1        0.0346
     28 O         143.3209  139.5369  165.9672 O.3     1  UNL1       -0.4535
     29 C         143.8846  140.6400  165.1215 C.ar    1  UNL1        0.1453
     30 C         144.8161  140.3171  163.9910 C.ar    1  UNL1        0.0375
     31 C         145.3798  141.4203  163.1452 C.ar    1  UNL1        0.0031
     32 C         145.0120  142.8463  163.4299 C.ar    1  UNL1        0.0002
     33 C         144.0804  143.1692  164.5604 C.ar    1  UNL1        0.0031
     34 C         143.5168  142.0661  165.4062 C.ar    1  UNL1        0.0375
@<TRIPOS>UNITY_ATOM_ATTR
17 1
charge 1
18 1
charge -1
@<TRIPOS>BOND
     1     1     2    2
     2     2    14    1
     3    14    15   ar
     4    15    16   ar
     5    16    17   ar
     6    17    18    1
     7    17    19   ar
     8    19    20   ar
     9     2     3   am
    10     3     4    1
    11     4     5    1
    12     5     6    1
    13     6     7    1
    14     7     8    1
    15     8     9    1
    16     9    21    1
    17    21    22    1
    18    22    23   ar
    19    23    24   ar
    20    24    25   ar
    21    25    26   ar
    22    26    28    1
    23    28    29    1
    24    29    30   ar
    25    30    31   ar
    26    31    32   ar
    27    32    33   ar
    28    33    34   ar
    29    26    27   ar
    30     9    10    1
    31    10    11    1
    32     6    12    1
    33    12    13    1
    34    20    14   ar
    35    13     3    1
    36    11     6    1
    37    27    22   ar
    38    34    29   ar
@<TRIPOS>MOLECULE
*****
 34 38 0 0 0
SMALL
GASTEIGER

@<TRIPOS>ATOM
      1 O         143.6920  138.4247  167.4254 O.2     1  UNL1       -0.2699
      2 C         142.4979  139.3302  167.3620 C.2     1  UNL1        0.2494
      3 N         141.7429  139.4869  166.0753 N.am    1  UNL1       -0.2761
      4 C         142.1820  138.7380  164.8521 C.3     1  UNL1        0.0937
      5 C         141.4270  138.8947  163.5655 C.3     1  UNL1        0.0217
      6 C         140.2328  139.8002  163.5021 C.3     1  UNL1        0.0060
      7 C         140.6719  139.0513  162.2788 C.3     1  UNL1        0.0175
      8 C         139.9169  139.2080  160.9922 C.3     1  UNL1        0.0724
      9 N         138.7228  140.1135  160.9289 N.3     1  UNL1       -0.2690
     10 C         138.2836  140.8623  162.1521 C.3     1  UNL1        0.0724
     11 C         139.0387  140.7057  163.4388 C.3     1  UNL1        0.0175
     12 C         139.7937  140.5490  164.7253 C.3     1  UNL1        0.0217
     13 C         140.5487  140.3924  166.0119 C.3     1  UNL1        0.0937
     14 C         142.0587  140.0791  168.5852 C.ar    1  UNL1        0.0659
     15 C         140.9149  139.5656  169.4086 C.ar    1  UNL1        0.0817
     16 C         140.4758  140.3146  170.6319 C.ar    1  UNL1        0.3019
     17 N         141.1805  141.5769  171.0317 N.ar    1  UNL1       -0.1519
     18 O         140.7413  142.3258  172.2549 O.co2   1  UNL1       -0.6187
     19 C         142.3243  142.0904  170.2083 C.ar    1  UNL1        0.3019
     20 C         142.7634  141.3415  168.9851 C.ar    1  UNL1        0.0817
     21 C         137.9677  140.2701  159.6422 C.3     1  UNL1        0.0992
     22 C         138.3231  141.3767  158.6940 C.ar    1  UNL1       -0.0031
     23 C         137.7912  141.3625  157.2915 C.ar    1  UNL1       -0.0027
     24 C         138.1466  142.4691  156.3434 C.ar    1  UNL1        0.0029
     25 C         139.0339  143.5900  156.7976 C.ar    1  UNL1        0.0375
     26 C         139.5659  143.6042  158.2000 C.ar    1  UNL1        0.1450
     27 C         139.2104  142.4975  159.1482 C.ar    1  UNL1        0.0346
     28 O         140.4532  144.7250  158.6543 O.3     1  UNL1       -0.4535
     29 C         140.8337  144.8413  160.1005 C.ar    1  UNL1        0.1453
     30 C         140.0126  145.6890  161.0264 C.ar    1  UNL1        0.0375
     31 C         140.3932  145.8052  162.4727 C.ar    1  UNL1        0.0031
     32 C         141.5949  145.0737  162.9931 C.ar    1  UNL1        0.0002
     33 C         142.4160  144.2260  162.0672 C.ar    1  UNL1        0.0031
     34 C         142.0355  144.1098  160.6210 C.ar    1  UNL1        0.0375
@<TRIPOS>UNITY_ATOM_ATTR
17 1
charge 1
18 1
charge -1
@<TRIPOS>BOND
     1     1     2    2
     2     2    14    1
     3    14    15   ar
     4    15    16   ar
     5    16    17   ar
     6    17    18    1
     7    17    19   ar
     8    19    20   ar
     9     2     3   am
    10     3     4    1
    11     4     5    1
    12     5     6    1
    13     6     7    1
    14     7     8    1
    15     8     9    1
    16     9    21    1
    17    21    22    1
    18    22    23   ar
    19    23    24   ar
    20    24    25   ar
    21    25    26   ar
    22    26    28    1
    23    28    29    1
    24    29    30   ar
    25    30    31   ar
    26    31    32   ar
    27    32    33   ar
    28    33    34   ar
    29    26    27   ar
    30     9    10    1
    31    10    11    1
    32     6    12    1
    33    12    13    1
    34    20    14   ar
    35    13     3    1
    36    11     6    1
    37    27    22   ar
    38    34    29   ar
