@<TRIPOS>MOLECULE
*****
 37 42 0 0 0
SMALL
GASTEIGER

@<TRIPOS>ATOM
      1 C         140.3514  145.0417  158.1689 C.3     1  UNL1        0.0666
      2 C         141.1251  145.2698  159.4335 C.3     1  UNL1        0.0294
      3 C         140.4084  145.6664  160.6902 C.3     1  UNL1        0.0730
      4 C         141.4153  140.3455  168.7286 C.ar    1  UNL1        0.0882
      5 N         140.4429  141.4707  168.5320 N.ar    1  UNL1       -0.2427
      6 C         140.6312  142.0090  167.1447 C.ar    1  UNL1        0.0871
      7 C         139.9519  143.1184  166.3977 C.ar    1  UNL1        0.0151
      8 C         140.3613  143.4353  164.9899 C.ar    1  UNL1       -0.0232
      9 C         141.4499  142.6428  164.3290 C.ar    1  UNL1       -0.0241
     10 C         142.1292  141.5334  165.0758 C.ar    1  UNL1        0.0035
     11 C         141.7198  141.2165  166.4837 C.ar    1  UNL1        0.0478
     12 S         142.2044  140.1884  167.4626 S.2     1  UNL1       -0.0708
     13 C         142.0068  142.7925  162.9443 C.3     1  UNL1        0.0434
     14 C         141.6126  143.7717  161.8785 C.3     1  UNL1        0.0768
     15 N         140.5643  144.8429  161.9342 N.3     1  UNL1       -0.2720
     16 C         139.6510  145.1997  163.0695 C.3     1  UNL1        0.0768
     17 C         139.5607  144.5732  164.4294 C.3     1  UNL1        0.0434
     18 C         142.6981  138.5385  170.0847 C.3     1  UNL1        0.0073
     19 C         141.5711  139.5221  169.9726 C.3     1  UNL1        0.0526
     20 S         139.7352  143.7013  157.8981 S.3     1  UNL1       -0.0756
     21 C         139.4267  142.7740  159.0361 C.ar    1  UNL1        0.1932
     22 N         138.1736  142.7764  159.8606 N.ar    1  UNL1       -0.1221
     23 N         138.2896  141.6854  160.8834 N.ar    1  UNL1       -0.1282
     24 C         139.6144  141.0087  160.6911 C.ar    1  UNL1        0.1669
     25 N         140.3172  141.6815  159.5493 N.ar    1  UNL1       -0.2884
     26 C         141.6725  141.3244  159.0148 C.3     1  UNL1        0.1340
     27 C         140.1436  139.8607  161.4987 C.ar    1  UNL1        0.0374
     28 C         141.1685  138.9380  160.9086 C.ar    1  UNL1        0.0031
     29 C         141.6976  137.7901  161.7162 C.ar    1  UNL1        0.0016
     30 C         141.2019  137.5648  163.1138 C.ar    1  UNL1        0.0191
     31 C         140.1770  138.4874  163.7039 C.ar    1  UNL1        0.0810
     32 N         139.6812  138.2622  165.1015 N.ar    1  UNL1       -0.2497
     33 C         138.6562  139.1849  165.6917 C.ar    1  UNL1        0.0593
     34 C         138.1605  138.9596  167.0893 C.3     1  UNL1        0.0521
     35 C         138.1271  140.3328  164.8840 C.ar    1  UNL1        0.0147
     36 C         138.6229  140.5581  163.4864 C.ar    1  UNL1        0.0028
     37 C         139.6478  139.6354  162.8963 C.ar    1  UNL1        0.0206
@<TRIPOS>BOND
     1    18    19    1
     2    19     4    1
     3     4     5   ar
     4     5     6   ar
     5     6     7   ar
     6     7     8   ar
     7     8     9   ar
     8     9    10   ar
     9    10    11   ar
    10    11    12   ar
    11     9    13    1
    12    13    14    1
    13    14    15    1
    14    15     3    1
    15     3     2    1
    16     2     1    1
    17     1    20    1
    18    20    21    1
    19    21    22   ar
    20    22    23   ar
    21    23    24   ar
    22    24    27    1
    23    27    28   ar
    24    28    29   ar
    25    29    30   ar
    26    30    31   ar
    27    31    32   ar
    28    32    33   ar
    29    33    34    1
    30    33    35   ar
    31    35    36   ar
    32    36    37   ar
    33    24    25   ar
    34    25    26    1
    35    15    16    1
    36    16    17    1
    37    12     4   ar
    38    25    21   ar
    39    11     6   ar
    40    37    27   ar
    41    17     8    1
    42    37    31   ar
@<TRIPOS>MOLECULE
*****
 37 42 0 0 0
SMALL
GASTEIGER

@<TRIPOS>ATOM
      1 C         141.7024  139.5726  169.8407 C.3     1  UNL1        0.0666
      2 C         142.8300  139.7670  168.8707 C.3     1  UNL1        0.0294
      3 C         142.8518  138.9992  167.5822 C.3     1  UNL1        0.0730
      4 C         141.8630  143.6638  159.1439 C.ar    1  UNL1        0.0882
      5 N         142.4997  144.2135  160.3859 N.ar    1  UNL1       -0.2427
      6 C         142.4364  143.1549  161.4466 C.ar    1  UNL1        0.0871
      7 C         142.9069  143.1317  162.8708 C.ar    1  UNL1        0.0151
      8 C         142.7014  141.9044  163.7086 C.ar    1  UNL1       -0.0232
      9 C         142.0256  140.7006  163.1223 C.ar    1  UNL1       -0.0241
     10 C         141.5551  140.7238  161.6982 C.ar    1  UNL1        0.0035
     11 C         141.7605  141.9509  160.8604 C.ar    1  UNL1        0.0478
     12 S         141.4061  142.2655  159.4372 S.2     1  UNL1       -0.0708
     13 C         141.7238  139.3855  163.7778 C.3     1  UNL1        0.0434
     14 C         142.0234  138.9497  165.1815 C.3     1  UNL1        0.0768
     15 N         142.6987  139.7211  166.2762 N.3     1  UNL1       -0.2720
     16 C         143.2413  141.1190  166.2379 C.3     1  UNL1        0.0768
     17 C         143.2425  142.0907  165.0952 C.3     1  UNL1        0.0434
     18 C         141.9589  145.8631  157.7640 C.3     1  UNL1        0.0073
     19 C         141.7099  144.3857  157.8380 C.3     1  UNL1        0.0526
     20 S         140.4229  140.3356  169.6660 S.3     1  UNL1       -0.0756
     21 C         140.1964  141.1459  168.4242 C.ar    1  UNL1        0.1932
     22 N         140.5666  142.5867  168.2319 N.ar    1  UNL1       -0.1221
     23 N         140.1589  142.9890  166.8455 N.ar    1  UNL1       -0.1282
     24 C         139.5368  141.7968  166.1810 C.ar    1  UNL1        0.1669
     25 N         139.5600  140.6576  167.1567 N.ar    1  UNL1       -0.2884
     26 C         139.0383  139.2734  166.9084 C.3     1  UNL1        0.1340
     27 C         138.9879  141.7516  164.7858 C.ar    1  UNL1        0.0374
     28 C         138.2882  140.5190  164.2947 C.ar    1  UNL1        0.0031
     29 C         137.7393  140.4738  162.8995 C.ar    1  UNL1        0.0016
     30 C         137.8900  141.6611  161.9953 C.ar    1  UNL1        0.0191
     31 C         138.5897  142.8937  162.4865 C.ar    1  UNL1        0.0810
     32 N         138.7404  144.0811  161.5824 N.ar    1  UNL1       -0.2497
     33 C         139.4401  145.3137  162.0735 C.ar    1  UNL1        0.0593
     34 C         139.5909  146.5011  161.1694 C.3     1  UNL1        0.0521
     35 C         139.9890  145.3589  163.4688 C.ar    1  UNL1        0.0147
     36 C         139.8383  144.1715  164.3728 C.ar    1  UNL1        0.0028
     37 C         139.1386  142.9389  163.8817 C.ar    1  UNL1        0.0206
@<TRIPOS>BOND
     1    18    19    1
     2    19     4    1
     3     4     5   ar
     4     5     6   ar
     5     6     7   ar
     6     7     8   ar
     7     8     9   ar
     8     9    10   ar
     9    10    11   ar
    10    11    12   ar
    11     9    13    1
    12    13    14    1
    13    14    15    1
    14    15     3    1
    15     3     2    1
    16     2     1    1
    17     1    20    1
    18    20    21    1
    19    21    22   ar
    20    22    23   ar
    21    23    24   ar
    22    24    27    1
    23    27    28   ar
    24    28    29   ar
    25    29    30   ar
    26    30    31   ar
    27    31    32   ar
    28    32    33   ar
    29    33    34    1
    30    33    35   ar
    31    35    36   ar
    32    36    37   ar
    33    24    25   ar
    34    25    26    1
    35    15    16    1
    36    16    17    1
    37    12     4   ar
    38    25    21   ar
    39    11     6   ar
    40    37    27   ar
    41    17     8    1
    42    37    31   ar
@<TRIPOS>MOLECULE
*****
 37 42 0 0 0
SMALL
GASTEIGER

@<TRIPOS>ATOM
      1 C         140.4096  144.7768  158.1937 C.3     1  UNL1        0.0666
      2 C         141.0793  145.4826  159.3354 C.3     1  UNL1        0.0294
      3 C         140.2889  145.8539  160.5550 C.3     1  UNL1        0.0730
      4 C         141.8141  141.2025  168.9204 C.ar    1  UNL1        0.0882
      5 N         140.5010  141.7461  168.4405 N.ar    1  UNL1       -0.2427
      6 C         140.7251  142.3847  167.1019 C.ar    1  UNL1        0.0871
      7 C         139.7948  143.0825  166.1544 C.ar    1  UNL1        0.0151
      8 C         140.3162  143.6315  164.8594 C.ar    1  UNL1       -0.0232
      9 C         141.7677  143.4826  164.5121 C.ar    1  UNL1       -0.0241
     10 C         142.6980  142.7848  165.4595 C.ar    1  UNL1        0.0035
     11 C         142.1767  142.2358  166.7544 C.ar    1  UNL1        0.0478
     12 S         142.8497  141.5052  167.8783 S.2     1  UNL1       -0.0708
     13 C         142.4883  143.9526  163.2832 C.3     1  UNL1        0.0434
     14 C         141.9351  144.6876  162.0983 C.3     1  UNL1        0.0768
     15 N         140.5249  145.1340  161.8497 N.3     1  UNL1       -0.2720
     16 C         139.3195  144.9558  162.7244 C.3     1  UNL1        0.0768
     17 C         139.2266  144.2871  164.0639 C.3     1  UNL1        0.0434
     18 C         142.5118  139.0554  170.2063 C.3     1  UNL1        0.0073
     19 C         142.0501  140.4826  170.2150 C.3     1  UNL1        0.0526
     20 S         140.4824  143.2822  158.0896 S.3     1  UNL1       -0.0756
     21 C         140.8377  142.4629  159.2948 C.ar    1  UNL1        0.1932
     22 N         142.1884  141.8880  159.6031 N.ar    1  UNL1       -0.1221
     23 N         142.0902  141.1444  160.9021 N.ar    1  UNL1       -0.1282
     24 C         140.6788  141.2597  161.3966 C.ar    1  UNL1        0.1669
     25 N         139.9046  142.0746  160.4032 N.ar    1  UNL1       -0.2884
     26 C         138.4525  142.4374  160.5012 C.3     1  UNL1        0.1340
     27 C         140.1366  140.6646  162.6623 C.ar    1  UNL1        0.0374
     28 C         138.6676  140.7382  162.9564 C.ar    1  UNL1        0.0031
     29 C         138.1254  140.1431  164.2221 C.ar    1  UNL1        0.0016
     30 C         139.0522  139.4744  165.1936 C.ar    1  UNL1        0.0191
     31 C         140.5212  139.4008  164.8994 C.ar    1  UNL1        0.0810
     32 N         141.4481  138.7321  165.8709 N.ar    1  UNL1       -0.2497
     33 C         142.9171  138.6585  165.5768 C.ar    1  UNL1        0.0593
     34 C         143.8440  137.9898  166.5483 C.3     1  UNL1        0.0521
     35 C         143.4593  139.2536  164.3111 C.ar    1  UNL1        0.0147
     36 C         142.5324  139.9223  163.3396 C.ar    1  UNL1        0.0028
     37 C         141.0634  139.9959  163.6338 C.ar    1  UNL1        0.0206
@<TRIPOS>BOND
     1    18    19    1
     2    19     4    1
     3     4     5   ar
     4     5     6   ar
     5     6     7   ar
     6     7     8   ar
     7     8     9   ar
     8     9    10   ar
     9    10    11   ar
    10    11    12   ar
    11     9    13    1
    12    13    14    1
    13    14    15    1
    14    15     3    1
    15     3     2    1
    16     2     1    1
    17     1    20    1
    18    20    21    1
    19    21    22   ar
    20    22    23   ar
    21    23    24   ar
    22    24    27    1
    23    27    28   ar
    24    28    29   ar
    25    29    30   ar
    26    30    31   ar
    27    31    32   ar
    28    32    33   ar
    29    33    34    1
    30    33    35   ar
    31    35    36   ar
    32    36    37   ar
    33    24    25   ar
    34    25    26    1
    35    15    16    1
    36    16    17    1
    37    12     4   ar
    38    25    21   ar
    39    11     6   ar
    40    37    27   ar
    41    17     8    1
    42    37    31   ar
@<TRIPOS>MOLECULE
*****
 37 42 0 0 0
SMALL
GASTEIGER

@<TRIPOS>ATOM
      1 C         141.8411  139.5723  169.1342 C.3     1  UNL1        0.0666
      2 C         142.7738  139.7519  167.9733 C.3     1  UNL1        0.0294
      3 C         143.2108  138.5621  167.1710 C.3     1  UNL1        0.0730
      4 C         142.5317  138.7204  157.5039 C.ar    1  UNL1        0.0882
      5 N         143.7211  139.1488  158.3114 N.ar    1  UNL1       -0.2427
      6 C         143.3903  138.9563  159.7617 C.ar    1  UNL1        0.0871
      7 C         144.1782  139.2088  161.0129 C.ar    1  UNL1        0.0151
      8 C         143.5723  138.9139  162.3531 C.ar    1  UNL1       -0.0232
      9 C         142.1786  138.3667  162.4419 C.ar    1  UNL1       -0.0241
     10 C         141.3907  138.1142  161.1908 C.ar    1  UNL1        0.0035
     11 C         141.9965  138.4091  159.8506 C.ar    1  UNL1        0.0478
     12 S         141.4659  138.2633  158.4552 S.2     1  UNL1       -0.0708
     13 C         141.3917  138.0063  163.6671 C.3     1  UNL1        0.0434
     14 C         141.8044  138.1042  165.1060 C.3     1  UNL1        0.0768
     15 N         143.1057  138.5866  165.6749 N.3     1  UNL1       -0.2720
     16 C         144.3158  139.0903  164.9457 C.3     1  UNL1        0.0768
     17 C         144.5235  139.2360  163.4673 C.3     1  UNL1        0.0434
     18 C         143.6660  138.8595  155.1706 C.3     1  UNL1        0.0073
     19 C         142.4266  138.7449  156.0077 C.3     1  UNL1        0.0526
     20 S         140.4327  140.0812  169.0505 S.3     1  UNL1       -0.0756
     21 C         139.8031  140.3288  167.7117 C.ar    1  UNL1        0.1932
     22 N         138.9372  139.3671  166.9531 N.ar    1  UNL1       -0.1221
     23 N         138.5278  140.0255  165.6690 N.ar    1  UNL1       -0.1282
     24 C         139.1406  141.3942  165.6340 C.ar    1  UNL1        0.1669
     25 N         139.9288  141.5817  166.8965 N.ar    1  UNL1       -0.2884
     26 C         140.7062  142.8069  167.2768 C.3     1  UNL1        0.1340
     27 C         138.9915  142.3990  164.5304 C.ar    1  UNL1        0.0374
     28 C         137.7222  143.1878  164.4007 C.ar    1  UNL1        0.0031
     29 C         137.5731  144.1927  163.2970 C.ar    1  UNL1        0.0016
     30 C         138.6931  144.4087  162.3230 C.ar    1  UNL1        0.0191
     31 C         139.9624  143.6199  162.4527 C.ar    1  UNL1        0.0810
     32 N         141.0824  143.8359  161.4787 N.ar    1  UNL1       -0.2497
     33 C         142.3518  143.0471  161.6082 C.ar    1  UNL1        0.0593
     34 C         143.4718  143.2631  160.6342 C.3     1  UNL1        0.0521
     35 C         142.5008  142.0423  162.7120 C.ar    1  UNL1        0.0147
     36 C         141.3807  141.8263  163.6860 C.ar    1  UNL1        0.0028
     37 C         140.1115  142.6151  163.5563 C.ar    1  UNL1        0.0206
@<TRIPOS>BOND
     1    18    19    1
     2    19     4    1
     3     4     5   ar
     4     5     6   ar
     5     6     7   ar
     6     7     8   ar
     7     8     9   ar
     8     9    10   ar
     9    10    11   ar
    10    11    12   ar
    11     9    13    1
    12    13    14    1
    13    14    15    1
    14    15     3    1
    15     3     2    1
    16     2     1    1
    17     1    20    1
    18    20    21    1
    19    21    22   ar
    20    22    23   ar
    21    23    24   ar
    22    24    27    1
    23    27    28   ar
    24    28    29   ar
    25    29    30   ar
    26    30    31   ar
    27    31    32   ar
    28    32    33   ar
    29    33    34    1
    30    33    35   ar
    31    35    36   ar
    32    36    37   ar
    33    24    25   ar
    34    25    26    1
    35    15    16    1
    36    16    17    1
    37    12     4   ar
    38    25    21   ar
    39    11     6   ar
    40    37    27   ar
    41    17     8    1
    42    37    31   ar
@<TRIPOS>MOLECULE
*****
 37 42 0 0 0
SMALL
GASTEIGER

@<TRIPOS>ATOM
      1 C         141.0496  139.6653  169.7894 C.3     1  UNL1        0.0666
      2 C         140.0448  140.4760  169.0257 C.3     1  UNL1        0.0294
      3 C         139.4541  139.9364  167.7568 C.3     1  UNL1        0.0730
      4 C         140.5238  144.8186  159.4526 C.ar    1  UNL1        0.0882
      5 N         140.3370  143.3362  159.5862 N.ar    1  UNL1       -0.2427
      6 C         140.2137  143.0142  161.0459 C.ar    1  UNL1        0.0871
      7 C         140.0150  141.7182  161.7746 C.ar    1  UNL1        0.0151
      8 C         139.9270  141.7055  163.2720 C.ar    1  UNL1       -0.0232
      9 C         140.0377  142.9887  164.0406 C.ar    1  UNL1       -0.0241
     10 C         140.2364  144.2847  163.3121 C.ar    1  UNL1        0.0035
     11 C         140.3244  144.2975  161.8147 C.ar    1  UNL1        0.0478
     12 S         140.5161  145.4126  160.8299 S.2     1  UNL1       -0.0708
     13 C         139.9772  143.1982  165.5248 C.3     1  UNL1        0.0434
     14 C         139.7912  142.1759  166.6067 C.3     1  UNL1        0.0768
     15 N         139.6197  140.6920  166.4717 N.3     1  UNL1       -0.2720
     16 C         139.5918  139.8635  165.2215 C.3     1  UNL1        0.0768
     17 C         139.7285  140.3146  163.7974 C.3     1  UNL1        0.0434
     18 C         142.0615  145.8208  157.6138 C.3     1  UNL1        0.0073
     19 C         140.6894  145.5742  158.1674 C.3     1  UNL1        0.0526
     20 S         142.4423  139.5020  169.2570 S.3     1  UNL1       -0.0756
     21 C         142.7329  139.7945  167.8147 C.ar    1  UNL1        0.1932
     22 N         142.8434  138.7810  166.7145 N.ar    1  UNL1       -0.1221
     23 N         143.1428  139.5118  165.4393 N.ar    1  UNL1       -0.1282
     24 C         143.2174  140.9771  165.7515 C.ar    1  UNL1        0.1669
     25 N         142.9641  141.1518  167.2196 N.ar    1  UNL1       -0.2884
     26 C         142.9452  142.4550  167.9621 C.3     1  UNL1        0.1340
     27 C         143.4964  142.0749  164.7681 C.ar    1  UNL1        0.0374
     28 C         143.7258  143.4757  165.2531 C.ar    1  UNL1        0.0031
     29 C         144.0048  144.5736  164.2698 C.ar    1  UNL1        0.0016
     30 C         144.0543  144.2707  162.8015 C.ar    1  UNL1        0.0191
     31 C         143.8248  142.8699  162.3166 C.ar    1  UNL1        0.0810
     32 N         143.8743  142.5670  160.8484 N.ar    1  UNL1       -0.2497
     33 C         143.6449  141.1662  160.3633 C.ar    1  UNL1        0.0593
     34 C         143.6944  140.8633  158.8951 C.3     1  UNL1        0.0521
     35 C         143.3659  140.0684  161.3467 C.ar    1  UNL1        0.0147
     36 C         143.3164  140.3713  162.8150 C.ar    1  UNL1        0.0028
     37 C         143.5459  141.7721  163.2999 C.ar    1  UNL1        0.0206
@<TRIPOS>BOND
     1    18    19    1
     2    19     4    1
     3     4     5   ar
     4     5     6   ar
     5     6     7   ar
     6     7     8   ar
     7     8     9   ar
     8     9    10   ar
     9    10    11   ar
    10    11    12   ar
    11     9    13    1
    12    13    14    1
    13    14    15    1
    14    15     3    1
    15     3     2    1
    16     2     1    1
    17     1    20    1
    18    20    21    1
    19    21    22   ar
    20    22    23   ar
    21    23    24   ar
    22    24    27    1
    23    27    28   ar
    24    28    29   ar
    25    29    30   ar
    26    30    31   ar
    27    31    32   ar
    28    32    33   ar
    29    33    34    1
    30    33    35   ar
    31    35    36   ar
    32    36    37   ar
    33    24    25   ar
    34    25    26    1
    35    15    16    1
    36    16    17    1
    37    12     4   ar
    38    25    21   ar
    39    11     6   ar
    40    37    27   ar
    41    17     8    1
    42    37    31   ar
@<TRIPOS>MOLECULE
*****
 37 42 0 0 0
SMALL
GASTEIGER

@<TRIPOS>ATOM
      1 C         141.9695  138.9700  157.3741 C.3     1  UNL1        0.0666
      2 C         142.9881  139.0903  158.4686 C.3     1  UNL1        0.0294
      3 C         142.9501  138.1485  159.6355 C.3     1  UNL1        0.0730
      4 C         142.7326  141.6383  168.6752 C.ar    1  UNL1        0.0882
      5 N         143.3417  142.3151  167.4831 N.ar    1  UNL1       -0.2427
      6 C         143.1486  141.4216  166.2939 C.ar    1  UNL1        0.0871
      7 C         143.5420  141.5684  164.8538 C.ar    1  UNL1        0.0151
      8 C         143.2069  140.4861  163.8707 C.ar    1  UNL1       -0.0232
      9 C         142.4784  139.2572  164.3277 C.ar    1  UNL1       -0.0241
     10 C         142.0850  139.1104  165.7677 C.ar    1  UNL1        0.0035
     11 C         142.4201  140.1926  166.7508 C.ar    1  UNL1        0.0478
     12 S         142.1630  140.3265  168.2225 S.2     1  UNL1       -0.0708
     13 C         142.0505  138.0686  163.5188 C.3     1  UNL1        0.0434
     14 C         142.2454  137.8156  162.0531 C.3     1  UNL1        0.0768
     15 N         142.9164  138.6886  161.0346 N.3     1  UNL1       -0.2720
     16 C         143.5582  140.0302  161.2298 C.3     1  UNL1        0.0768
     17 C         143.6875  140.8302  162.4921 C.3     1  UNL1        0.0434
     18 C         141.5685  141.8157  170.9911 C.3     1  UNL1        0.0073
     19 C         142.6989  142.1783  170.0742 C.3     1  UNL1        0.0526
     20 S         140.9064  140.0169  157.2205 S.3     1  UNL1       -0.0756
     21 C         139.8615  140.1864  158.2832 C.ar    1  UNL1        0.1932
     22 N         138.5180  139.5202  158.3129 N.ar    1  UNL1       -0.1221
     23 N         137.8028  139.9739  159.5509 N.ar    1  UNL1       -0.1282
     24 C         138.7044  140.9206  160.2864 C.ar    1  UNL1        0.1669
     25 N         139.9768  141.0519  159.5029 N.ar    1  UNL1       -0.2884
     26 C         141.1571  141.8999  159.8740 C.3     1  UNL1        0.1340
     27 C         138.3890  141.6141  161.5784 C.ar    1  UNL1        0.0374
     28 C         138.0942  143.0848  161.5877 C.ar    1  UNL1        0.0031
     29 C         137.7788  143.7784  162.8798 C.ar    1  UNL1        0.0016
     30 C         137.7582  143.0013  164.1626 C.ar    1  UNL1        0.0191
     31 C         138.0530  141.5306  164.1533 C.ar    1  UNL1        0.0810
     32 N         138.0324  140.7534  165.4361 N.ar    1  UNL1       -0.2497
     33 C         138.3272  139.2827  165.4269 C.ar    1  UNL1        0.0593
     34 C         138.3066  138.5055  166.7097 C.3     1  UNL1        0.0521
     35 C         138.6426  138.5892  164.1348 C.ar    1  UNL1        0.0147
     36 C         138.6632  139.3663  162.8520 C.ar    1  UNL1        0.0028
     37 C         138.3684  140.8371  162.8613 C.ar    1  UNL1        0.0206
@<TRIPOS>BOND
     1    18    19    1
     2    19     4    1
     3     4     5   ar
     4     5     6   ar
     5     6     7   ar
     6     7     8   ar
     7     8     9   ar
     8     9    10   ar
     9    10    11   ar
    10    11    12   ar
    11     9    13    1
    12    13    14    1
    13    14    15    1
    14    15     3    1
    15     3     2    1
    16     2     1    1
    17     1    20    1
    18    20    21    1
    19    21    22   ar
    20    22    23   ar
    21    23    24   ar
    22    24    27    1
    23    27    28   ar
    24    28    29   ar
    25    29    30   ar
    26    30    31   ar
    27    31    32   ar
    28    32    33   ar
    29    33    34    1
    30    33    35   ar
    31    35    36   ar
    32    36    37   ar
    33    24    25   ar
    34    25    26    1
    35    15    16    1
    36    16    17    1
    37    12     4   ar
    38    25    21   ar
    39    11     6   ar
    40    37    27   ar
    41    17     8    1
    42    37    31   ar
@<TRIPOS>MOLECULE
*****
 37 42 0 0 0
SMALL
GASTEIGER

@<TRIPOS>ATOM
      1 C         142.8747  143.0053  157.1883 C.3     1  UNL1        0.0666
      2 C         142.4839  144.2483  157.9314 C.3     1  UNL1        0.0294
      3 C         141.1404  144.3358  158.5928 C.3     1  UNL1        0.0730
      4 C         140.0825  141.5219  167.8071 C.ar    1  UNL1        0.0882
      5 N         140.6504  142.8310  167.3446 N.ar    1  UNL1       -0.2427
      6 C         140.6259  142.8429  165.8449 C.ar    1  UNL1        0.0871
      7 C         141.0592  143.8709  164.8421 C.ar    1  UNL1        0.0151
      8 C         140.9095  143.5971  163.3749 C.ar    1  UNL1       -0.0232
      9 C         140.3265  142.2955  162.9105 C.ar    1  UNL1       -0.0241
     10 C         139.8932  141.2675  163.9132 C.ar    1  UNL1        0.0035
     11 C         140.0429  141.5412  165.3804 C.ar    1  UNL1        0.0478
     12 S         139.7071  140.7248  166.5932 S.2     1  UNL1       -0.0708
     13 C         140.0910  141.8243  161.5060 C.3     1  UNL1        0.0434
     14 C         140.3804  142.5386  160.2190 C.3     1  UNL1        0.0768
     15 N         140.9767  143.9003  160.0188 N.3     1  UNL1       -0.2720
     16 C         141.4309  144.8842  161.0560 C.3     1  UNL1        0.0768
     17 C         141.4010  144.7492  162.5496 C.3     1  UNL1        0.0434
     18 C         139.6714  142.1061  170.3051 C.3     1  UNL1        0.0073
     19 C         139.9187  141.0864  169.2332 C.3     1  UNL1        0.0526
     20 S         144.0982  142.2402  157.5976 S.3     1  UNL1       -0.0756
     21 C         143.9927  141.1486  158.6209 C.ar    1  UNL1        0.1932
     22 N         143.8576  139.6823  158.3352 N.ar    1  UNL1       -0.1221
     23 N         143.7852  138.9590  159.6473 N.ar    1  UNL1       -0.1282
     24 C         143.8756  139.9784  160.7440 C.ar    1  UNL1        0.1669
     25 N         144.0039  141.3316  160.1097 N.ar    1  UNL1       -0.2884
     26 C         144.1224  142.6384  160.8365 C.3     1  UNL1        0.1340
     27 C         143.8434  139.6944  162.2165 C.ar    1  UNL1        0.0374
     28 C         145.0023  140.0909  163.0823 C.ar    1  UNL1        0.0031
     29 C         144.9702  139.8069  164.5548 C.ar    1  UNL1        0.0016
     30 C         143.7791  139.1264  165.1616 C.ar    1  UNL1        0.0191
     31 C         142.6202  138.7299  164.2958 C.ar    1  UNL1        0.0810
     32 N         141.4291  138.0493  164.9024 N.ar    1  UNL1       -0.2497
     33 C         140.2701  137.6527  164.0367 C.ar    1  UNL1        0.0593
     34 C         139.0790  136.9722  164.6434 C.3     1  UNL1        0.0521
     35 C         140.3023  137.9368  162.5641 C.ar    1  UNL1        0.0147
     36 C         141.4934  138.6173  161.9574 C.ar    1  UNL1        0.0028
     37 C         142.6524  139.0139  162.8233 C.ar    1  UNL1        0.0206
@<TRIPOS>BOND
     1    18    19    1
     2    19     4    1
     3     4     5   ar
     4     5     6   ar
     5     6     7   ar
     6     7     8   ar
     7     8     9   ar
     8     9    10   ar
     9    10    11   ar
    10    11    12   ar
    11     9    13    1
    12    13    14    1
    13    14    15    1
    14    15     3    1
    15     3     2    1
    16     2     1    1
    17     1    20    1
    18    20    21    1
    19    21    22   ar
    20    22    23   ar
    21    23    24   ar
    22    24    27    1
    23    27    28   ar
    24    28    29   ar
    25    29    30   ar
    26    30    31   ar
    27    31    32   ar
    28    32    33   ar
    29    33    34    1
    30    33    35   ar
    31    35    36   ar
    32    36    37   ar
    33    24    25   ar
    34    25    26    1
    35    15    16    1
    36    16    17    1
    37    12     4   ar
    38    25    21   ar
    39    11     6   ar
    40    37    27   ar
    41    17     8    1
    42    37    31   ar
@<TRIPOS>MOLECULE
*****
 37 42 0 0 0
SMALL
GASTEIGER

@<TRIPOS>ATOM
      1 C         143.2619  140.3070  156.9480 C.3     1  UNL1        0.0666
      2 C         144.1868  140.4557  158.1195 C.3     1  UNL1        0.0294
      3 C         144.0632  141.6439  159.0268 C.3     1  UNL1        0.0730
      4 C         140.9487  140.4864  168.1318 C.ar    1  UNL1        0.0882
      5 N         141.7407  139.4904  167.3374 N.ar    1  UNL1       -0.2427
      6 C         142.0048  140.0815  165.9844 C.ar    1  UNL1        0.0871
      7 C         142.7367  139.5560  164.7850 C.ar    1  UNL1        0.0151
      8 C         142.8397  140.3918  163.5437 C.ar    1  UNL1       -0.0232
      9 C         142.2109  141.7529  163.5017 C.ar    1  UNL1       -0.0241
     10 C         141.4791  142.2784  164.7010 C.ar    1  UNL1        0.0035
     11 C         141.3760  141.4427  165.9423 C.ar    1  UNL1        0.0478
     12 S         140.7233  141.6929  167.2695 S.2     1  UNL1       -0.0708
     13 C         142.1957  142.7417  162.3738 C.3     1  UNL1        0.0434
     14 C         142.8056  142.6134  161.0093 C.3     1  UNL1        0.0768
     15 N         143.5812  141.4648  160.4359 N.3     1  UNL1       -0.2720
     16 C         143.9386  140.1606  161.0851 C.3     1  UNL1        0.0768
     17 C         143.6086  139.6831  162.4682 C.3     1  UNL1        0.0434
     18 C         139.0182  140.5155  169.8702 C.3     1  UNL1        0.0073
     19 C         140.4667  140.3072  169.5409 C.3     1  UNL1        0.0526
     20 S         141.9523  139.5944  157.1122 S.3     1  UNL1       -0.0756
     21 C         141.3040  139.5183  158.4627 C.ar    1  UNL1        0.1932
     22 N         141.3197  138.3337  159.3828 N.ar    1  UNL1       -0.1221
     23 N         140.5516  138.6967  160.6190 N.ar    1  UNL1       -0.1282
     24 C         140.0611  140.1056  160.4630 C.ar    1  UNL1        0.1669
     25 N         140.5261  140.6135  159.1303 N.ar    1  UNL1       -0.2884
     26 C         140.2600  141.9770  158.5646 C.3     1  UNL1        0.1340
     27 C         139.2484  140.8722  161.4638 C.ar    1  UNL1        0.0374
     28 C         138.7353  142.2400  161.1236 C.ar    1  UNL1        0.0031
     29 C         137.9225  143.0066  162.1245 C.ar    1  UNL1        0.0016
     30 C         137.6228  142.4054  163.4656 C.ar    1  UNL1        0.0191
     31 C         138.1359  141.0376  163.8059 C.ar    1  UNL1        0.0810
     32 N         137.8363  140.4363  165.1470 N.ar    1  UNL1       -0.2497
     33 C         138.3493  139.0684  165.4873 C.ar    1  UNL1        0.0593
     34 C         138.0497  138.4672  166.8285 C.3     1  UNL1        0.0521
     35 C         139.1621  138.3019  164.4864 C.ar    1  UNL1        0.0147
     36 C         139.4618  138.9032  163.1452 C.ar    1  UNL1        0.0028
     37 C         138.9487  140.2710  162.8050 C.ar    1  UNL1        0.0206
@<TRIPOS>BOND
     1    18    19    1
     2    19     4    1
     3     4     5   ar
     4     5     6   ar
     5     6     7   ar
     6     7     8   ar
     7     8     9   ar
     8     9    10   ar
     9    10    11   ar
    10    11    12   ar
    11     9    13    1
    12    13    14    1
    13    14    15    1
    14    15     3    1
    15     3     2    1
    16     2     1    1
    17     1    20    1
    18    20    21    1
    19    21    22   ar
    20    22    23   ar
    21    23    24   ar
    22    24    27    1
    23    27    28   ar
    24    28    29   ar
    25    29    30   ar
    26    30    31   ar
    27    31    32   ar
    28    32    33   ar
    29    33    34    1
    30    33    35   ar
    31    35    36   ar
    32    36    37   ar
    33    24    25   ar
    34    25    26    1
    35    15    16    1
    36    16    17    1
    37    12     4   ar
    38    25    21   ar
    39    11     6   ar
    40    37    27   ar
    41    17     8    1
    42    37    31   ar
@<TRIPOS>MOLECULE
*****
 37 42 0 0 0
SMALL
GASTEIGER

@<TRIPOS>ATOM
      1 C         140.7071  143.9620  157.3844 C.3     1  UNL1        0.0666
      2 C         140.0521  144.5651  158.5917 C.3     1  UNL1        0.0294
      3 C         140.8930  145.1022  159.7117 C.3     1  UNL1        0.0730
      4 C         141.1663  140.4685  168.2202 C.ar    1  UNL1        0.0882
      5 N         142.2729  141.2896  167.6274 N.ar    1  UNL1       -0.2427
      6 C         141.8005  141.8190  166.3059 C.ar    1  UNL1        0.0871
      7 C         142.4631  142.6870  165.2775 C.ar    1  UNL1        0.0151
      8 C         141.7272  143.0611  164.0251 C.ar    1  UNL1       -0.0232
      9 C         140.3288  142.5672  163.8010 C.ar    1  UNL1       -0.0241
     10 C         139.6661  141.6991  164.8293 C.ar    1  UNL1        0.0035
     11 C         140.4020  141.3250  166.0818 C.ar    1  UNL1        0.0478
     12 S         140.0101  140.4904  167.2649 S.2     1  UNL1       -0.0708
     13 C         139.4237  142.8198  162.6318 C.3     1  UNL1        0.0434
     14 C         139.6937  143.6290  161.3978 C.3     1  UNL1        0.0768
     15 N         140.9353  144.3851  161.0285 N.3     1  UNL1       -0.2720
     16 C         142.2137  144.5190  161.8017 C.3     1  UNL1        0.0768
     17 C         142.5661  143.9297  163.1353 C.3     1  UNL1        0.0434
     18 C         142.4506  139.0205  169.9534 C.3     1  UNL1        0.0073
     19 C         141.2086  139.7513  169.5370 C.3     1  UNL1        0.0526
     20 S         140.7692  142.4713  157.2310 S.3     1  UNL1       -0.0756
     21 C         141.1266  141.6105  158.4064 C.ar    1  UNL1        0.1932
     22 N         142.5151  141.2897  158.8745 N.ar    1  UNL1       -0.1221
     23 N         142.4049  140.4005  160.0774 N.ar    1  UNL1       -0.1282
     24 C         140.9482  140.1717  160.3527 C.ar    1  UNL1        0.1669
     25 N         140.1582  140.9196  159.3199 N.ar    1  UNL1       -0.2884
     26 C         138.6624  140.9679  159.2186 C.3     1  UNL1        0.1340
     27 C         140.3811  139.3409  161.4654 C.ar    1  UNL1        0.0374
     28 C         138.9915  138.7871  161.3548 C.ar    1  UNL1        0.0031
     29 C         138.4244  137.9562  162.4675 C.ar    1  UNL1        0.0016
     30 C         139.2469  137.6792  163.6909 C.ar    1  UNL1        0.0191
     31 C         140.6365  138.2330  163.8015 C.ar    1  UNL1        0.0810
     32 N         141.4590  137.9560  165.0249 N.ar    1  UNL1       -0.2497
     33 C         142.8487  138.5098  165.1357 C.ar    1  UNL1        0.0593
     34 C         143.6712  138.2328  166.3590 C.3     1  UNL1        0.0521
     35 C         143.4157  139.3406  164.0229 C.ar    1  UNL1        0.0147
     36 C         142.5932  139.6176  162.7995 C.ar    1  UNL1        0.0028
     37 C         141.2036  139.0638  162.6888 C.ar    1  UNL1        0.0206
@<TRIPOS>BOND
     1    18    19    1
     2    19     4    1
     3     4     5   ar
     4     5     6   ar
     5     6     7   ar
     6     7     8   ar
     7     8     9   ar
     8     9    10   ar
     9    10    11   ar
    10    11    12   ar
    11     9    13    1
    12    13    14    1
    13    14    15    1
    14    15     3    1
    15     3     2    1
    16     2     1    1
    17     1    20    1
    18    20    21    1
    19    21    22   ar
    20    22    23   ar
    21    23    24   ar
    22    24    27    1
    23    27    28   ar
    24    28    29   ar
    25    29    30   ar
    26    30    31   ar
    27    31    32   ar
    28    32    33   ar
    29    33    34    1
    30    33    35   ar
    31    35    36   ar
    32    36    37   ar
    33    24    25   ar
    34    25    26    1
    35    15    16    1
    36    16    17    1
    37    12     4   ar
    38    25    21   ar
    39    11     6   ar
    40    37    27   ar
    41    17     8    1
    42    37    31   ar
