@<TRIPOS>MOLECULE
*****
 46 52 0 0 0
SMALL
GASTEIGER

@<TRIPOS>ATOM
      1 C         140.7150  141.5057  164.7326 C.ar    1  UNL1        0.0907
      2 C         141.4448  142.5409  165.5361 C.ar    1  UNL1        0.1496
      3 O         141.9065  143.6157  164.5971 O.2     1  UNL1       -0.4533
      4 C         141.4620  143.2447  163.2134 C.ar    1  UNL1        0.1467
      5 C         141.6327  143.9259  161.8879 C.ar    1  UNL1        0.0536
      6 C         141.0669  143.3030  160.6462 C.ar    1  UNL1        0.0730
      7 C         140.3305  141.9989  160.7299 C.ar    1  UNL1        0.0327
      8 C         140.1598  141.3177  162.0554 C.ar    1  UNL1        0.0061
      9 C         140.7256  141.9406  163.2971 C.ar    1  UNL1        0.0420
     10 C         139.7647  141.3760  159.4882 C.ar    1  UNL1        0.0826
     11 C         138.5423  141.9614  158.8454 C.ar    1  UNL1        0.0205
     12 C         137.9765  141.3386  157.6037 C.ar    1  UNL1        0.0175
     13 C         138.6330  140.1302  157.0048 C.ar    1  UNL1        0.0653
     14 C         139.8554  139.5447  157.6475 C.ar    1  UNL1        0.1101
     15 N         140.4212  140.1676  158.8892 N.ar    1  UNL1       -0.2426
     16 C         140.5119  138.3363  157.0485 C.ar    1  UNL1        0.0803
     17 C         141.7184  137.5438  157.4563 C.ar    1  UNL1        0.0225
     18 C         141.8983  136.4311  156.4666 C.ar    1  UNL1        0.0448
     19 C         142.9179  135.3360  156.3619 C.ar    1  UNL1        0.1415
     20 F         144.0133  135.2311  157.3814 F       1  UNL1       -0.2041
     21 C         142.8422  134.3456  155.2378 C.ar    1  UNL1        0.0297
     22 C         141.7469  134.4505  154.2184 C.ar    1  UNL1        0.0038
     23 C         140.7272  135.5456  154.3231 C.ar    1  UNL1        0.0174
     24 C         140.8029  136.5359  155.4472 C.ar    1  UNL1        0.0634
     25 N         139.9461  137.7134  155.8068 N.ar    1  UNL1       -0.3085
     26 C         138.7238  138.2989  155.1641 C.3     1  UNL1        0.2004
     27 N         138.0672  139.5072  155.7630 N.pl3   1  UNL1       -0.3126
     28 H         137.2650  139.8915  155.3412 H       1  UNL1        0.1486
     29 C         141.6729  142.5072  167.0183 C.ar    1  UNL1        0.0349
     30 C         143.0199  142.1321  167.5615 C.ar    1  UNL1        0.0053
     31 C         143.2480  142.0985  169.0436 C.ar    1  UNL1        0.0297
     32 C         142.1292  142.4399  169.9826 C.ar    1  UNL1        0.1401
     33 F         142.3574  142.4062  171.4648 F       1  UNL1       -0.2042
     34 C         140.7823  142.8150  169.4394 C.ar    1  UNL1        0.0297
     35 C         140.5541  142.8487  167.9572 C.ar    1  UNL1        0.0053
     36 C         138.0687  139.0485  166.3787 C.3     1  UNL1        0.1109
     37 N         138.6986  140.2991  165.8411 N.am    1  UNL1       -0.2991
     38 C         140.0851  140.2550  165.2702 C.2     1  UNL1        0.2490
     39 O         140.8415  138.9602  165.2371 O.2     1  UNL1       -0.2700
     40 H         138.2021  141.1490  165.8629 H       1  UNL1        0.1498
     41 N         141.2375  143.9842  159.3207 N.pl3   1  UNL1       -0.1924
     42 C         140.3501  145.1349  158.9491 C.3     1  UNL1        0.1388
     43 S         142.2957  143.5145  158.3668 S.O2    1  UNL1        0.0588
     44 C         143.3539  143.0449  157.4131 C.3     1  UNL1        0.1999
     45 O         141.2688  143.4116  157.2783 O.2     1  UNL1       -0.1542
     46 O         143.3225  143.6175  159.4554 O.2     1  UNL1       -0.1542
@<TRIPOS>BOND
     1    36    37    1
     2    37    38   am
     3    38    39    2
     4    38     1    1
     5     1     2   ar
     6     2    29    1
     7    29    30   ar
     8    30    31   ar
     9    31    32   ar
    10    32    33    1
    11    32    34   ar
    12    34    35   ar
    13     2     3   ar
    14     3     4   ar
    15     4     5   ar
    16     5     6   ar
    17     6    41    1
    18    41    42    1
    19    41    43    1
    20    43    44    1
    21    43    45    2
    22    43    46    2
    23     6     7   ar
    24     7    10    1
    25    10    11   ar
    26    11    12   ar
    27    12    13   ar
    28    13    14   ar
    29    14    15   ar
    30    14    16    1
    31    16    17   ar
    32    17    18   ar
    33    18    19   ar
    34    19    20    1
    35    19    21   ar
    36    21    22   ar
    37    22    23   ar
    38    23    24   ar
    39    24    25   ar
    40    25    26    1
    41    26    27    1
    42     7     8   ar
    43     8     9   ar
    44     9     1   ar
    45    35    29   ar
    46     9     4   ar
    47    15    10   ar
    48    25    16   ar
    49    27    13    1
    50    24    18   ar
    51    37    40    1
    52    27    28    1
@<TRIPOS>MOLECULE
*****
 46 52 0 0 0
SMALL
GASTEIGER

@<TRIPOS>ATOM
      1 C         141.3931  140.1027  162.7552 C.ar    1  UNL1        0.0907
      2 C         141.9339  141.3597  163.3695 C.ar    1  UNL1        0.1496
      3 O         142.5473  142.1833  162.2762 O.2     1  UNL1       -0.4533
      4 C         142.3856  141.4353  160.9861 C.ar    1  UNL1        0.1467
      5 C         142.7958  141.7589  159.5800 C.ar    1  UNL1        0.0536
      6 C         142.4926  140.7965  158.4700 C.ar    1  UNL1        0.0730
      7 C         141.7793  139.5107  158.7661 C.ar    1  UNL1        0.0327
      8 C         141.3691  139.1871  160.1722 C.ar    1  UNL1        0.0061
      9 C         141.6723  140.1493  161.2821 C.ar    1  UNL1        0.0420
     10 C         141.4761  138.5483  157.6561 C.ar    1  UNL1        0.0826
     11 C         140.4319  138.8873  156.6339 C.ar    1  UNL1        0.0205
     12 C         140.1287  137.9250  155.5239 C.ar    1  UNL1        0.0175
     13 C         140.8697  136.6238  155.4361 C.ar    1  UNL1        0.0653
     14 C         141.9139  136.2849  156.4583 C.ar    1  UNL1        0.1101
     15 N         142.2171  137.2471  157.5682 N.ar    1  UNL1       -0.2426
     16 C         142.6549  134.9836  156.3704 C.ar    1  UNL1        0.0803
     17 C         143.7288  134.3804  157.2265 C.ar    1  UNL1        0.0225
     18 C         144.0893  133.0452  156.6455 C.ar    1  UNL1        0.0448
     19 C         145.0826  132.0029  157.0659 C.ar    1  UNL1        0.1415
     20 F         145.9338  132.2247  158.2811 F       1  UNL1       -0.2041
     21 C         145.2248  130.7386  156.2713 C.ar    1  UNL1        0.0297
     22 C         144.3738  130.5167  155.0562 C.ar    1  UNL1        0.0038
     23 C         143.3804  131.5591  154.6358 C.ar    1  UNL1        0.0174
     24 C         143.2382  132.8234  155.4305 C.ar    1  UNL1        0.0634
     25 N         142.3517  134.0213  155.2604 N.ar    1  UNL1       -0.3085
     26 C         141.3075  134.3603  154.2383 C.3     1  UNL1        0.2004
     27 N         140.5665  135.6615  154.3261 N.pl3   1  UNL1       -0.3126
     28 H         139.8812  135.8839  153.6552 H       1  UNL1        0.1486
     29 C         141.8721  141.7285  164.8222 C.ar    1  UNL1        0.0349
     30 C         143.0552  141.4799  165.7101 C.ar    1  UNL1        0.0053
     31 C         142.9935  141.8486  167.1627 C.ar    1  UNL1        0.0297
     32 C         141.7486  142.4659  167.7275 C.ar    1  UNL1        0.1401
     33 F         141.6867  142.8346  169.1802 F       1  UNL1       -0.2042
     34 C         140.5654  142.7145  166.8397 C.ar    1  UNL1        0.0297
     35 C         140.6271  142.3458  165.3870 C.ar    1  UNL1        0.0053
     36 C         138.6462  138.1197  164.8221 C.3     1  UNL1        0.1109
     37 N         139.3437  139.2287  164.0917 N.am    1  UNL1       -0.2991
     38 C         140.6956  138.9937  163.4856 C.2     1  UNL1        0.2490
     39 O         141.3498  137.6497  163.6101 O.2     1  UNL1       -0.2700
     40 H         138.9142  140.1108  164.0100 H       1  UNL1        0.1498
     41 N         142.9028  141.1201  157.0639 N.pl3   1  UNL1       -0.1924
     42 C         142.2364  142.2446  156.3282 C.3     1  UNL1        0.1388
     43 S         143.9795  140.3192  156.3936 S.O2    1  UNL1        0.0588
     44 C         145.0561  139.5182  155.7233 C.3     1  UNL1        0.1999
     45 O         143.1777  140.3021  155.1260 O.2     1  UNL1       -0.1542
     46 O         144.7813  140.3362  157.6612 O.2     1  UNL1       -0.1542
@<TRIPOS>BOND
     1    36    37    1
     2    37    38   am
     3    38    39    2
     4    38     1    1
     5     1     2   ar
     6     2    29    1
     7    29    30   ar
     8    30    31   ar
     9    31    32   ar
    10    32    33    1
    11    32    34   ar
    12    34    35   ar
    13     2     3   ar
    14     3     4   ar
    15     4     5   ar
    16     5     6   ar
    17     6    41    1
    18    41    42    1
    19    41    43    1
    20    43    44    1
    21    43    45    2
    22    43    46    2
    23     6     7   ar
    24     7    10    1
    25    10    11   ar
    26    11    12   ar
    27    12    13   ar
    28    13    14   ar
    29    14    15   ar
    30    14    16    1
    31    16    17   ar
    32    17    18   ar
    33    18    19   ar
    34    19    20    1
    35    19    21   ar
    36    21    22   ar
    37    22    23   ar
    38    23    24   ar
    39    24    25   ar
    40    25    26    1
    41    26    27    1
    42     7     8   ar
    43     8     9   ar
    44     9     1   ar
    45    35    29   ar
    46     9     4   ar
    47    15    10   ar
    48    25    16   ar
    49    27    13    1
    50    24    18   ar
    51    37    40    1
    52    27    28    1
@<TRIPOS>MOLECULE
*****
 46 52 0 0 0
SMALL
GASTEIGER

@<TRIPOS>ATOM
      1 C         143.3323  141.1966  158.2168 C.ar    1  UNL1        0.0907
      2 C         143.9549  142.3357  157.4653 C.ar    1  UNL1        0.1496
      3 O         143.5977  143.6087  158.1738 O.2     1  UNL1       -0.4533
      4 C         142.7543  143.2562  159.3631 C.ar    1  UNL1        0.1467
      5 C         142.1145  144.1002  160.4254 C.ar    1  UNL1        0.0536
      6 C         141.3107  143.4532  161.5142 C.ar    1  UNL1        0.0730
      7 C         141.1467  141.9625  161.5408 C.ar    1  UNL1        0.0327
      8 C         141.7865  141.1186  160.4785 C.ar    1  UNL1        0.0061
      9 C         142.5903  141.7654  159.3897 C.ar    1  UNL1        0.0420
     10 C         140.3429  141.3156  162.6296 C.ar    1  UNL1        0.0826
     11 C         139.0944  140.5566  162.2902 C.ar    1  UNL1        0.0205
     12 C         138.2906  139.9098  163.3789 C.ar    1  UNL1        0.0175
     13 C         138.7353  140.0218  164.8071 C.ar    1  UNL1        0.0653
     14 C         139.9838  140.7808  165.1465 C.ar    1  UNL1        0.1101
     15 N         140.7876  141.4277  164.0577 N.ar    1  UNL1       -0.2426
     16 C         140.4285  140.8929  166.5747 C.ar    1  UNL1        0.0803
     17 C         141.6066  141.5711  167.2087 C.ar    1  UNL1        0.0225
     18 C         141.5309  141.3433  168.6894 C.ar    1  UNL1        0.0448
     19 C         142.4191  141.7758  169.8182 C.ar    1  UNL1        0.1415
     20 F         143.6440  142.5948  169.5372 F       1  UNL1       -0.2041
     21 C         142.0823  141.3894  171.2279 C.ar    1  UNL1        0.0297
     22 C         140.8575  140.5705  171.5089 C.ar    1  UNL1        0.0038
     23 C         139.9693  140.1380  170.3802 C.ar    1  UNL1        0.0174
     24 C         140.3060  140.5244  168.9704 C.ar    1  UNL1        0.0634
     25 N         139.6247  140.2460  167.6634 N.ar    1  UNL1       -0.3085
     26 C         138.3762  139.4870  167.3240 C.3     1  UNL1        0.2004
     27 N         137.9314  139.3749  165.8959 N.pl3   1  UNL1       -0.3126
     28 H         137.1120  138.8768  165.6731 H       1  UNL1        0.1486
     29 C         144.7884  142.2219  156.2233 C.ar    1  UNL1        0.0349
     30 C         146.2374  141.8475  156.3243 C.ar    1  UNL1        0.0053
     31 C         147.0709  141.7337  155.0824 C.ar    1  UNL1        0.0297
     32 C         146.4554  141.9943  153.7396 C.ar    1  UNL1        0.1401
     33 F         147.2889  141.8805  152.4977 F       1  UNL1       -0.2042
     34 C         145.0064  142.3687  153.6387 C.ar    1  UNL1        0.0297
     35 C         144.1729  142.4825  154.8805 C.ar    1  UNL1        0.0053
     36 C         143.3167  137.8507  156.0825 C.3     1  UNL1        0.1109
     37 N         143.2151  139.3037  156.4410 N.am    1  UNL1       -0.2991
     38 C         143.4340  139.7436  157.8583 C.2     1  UNL1        0.2490
     39 O         143.7544  138.7305  158.9169 O.2     1  UNL1       -0.2700
     40 H         143.0047  139.9686  155.7461 H       1  UNL1        0.1498
     41 N         140.6708  144.2972  162.5765 N.pl3   1  UNL1       -0.1924
     42 C         141.5222  145.1423  163.4770 C.3     1  UNL1        0.1388
     43 S         139.1795  144.2960  162.7382 S.O2    1  UNL1        0.0588
     44 C         137.6883  144.2948  162.9000 C.3     1  UNL1        0.1999
     45 O         139.0177  144.3223  161.2473 O.2     1  UNL1       -0.1542
     46 O         139.3413  144.2696  164.2292 O.2     1  UNL1       -0.1542
@<TRIPOS>BOND
     1    36    37    1
     2    37    38   am
     3    38    39    2
     4    38     1    1
     5     1     2   ar
     6     2    29    1
     7    29    30   ar
     8    30    31   ar
     9    31    32   ar
    10    32    33    1
    11    32    34   ar
    12    34    35   ar
    13     2     3   ar
    14     3     4   ar
    15     4     5   ar
    16     5     6   ar
    17     6    41    1
    18    41    42    1
    19    41    43    1
    20    43    44    1
    21    43    45    2
    22    43    46    2
    23     6     7   ar
    24     7    10    1
    25    10    11   ar
    26    11    12   ar
    27    12    13   ar
    28    13    14   ar
    29    14    15   ar
    30    14    16    1
    31    16    17   ar
    32    17    18   ar
    33    18    19   ar
    34    19    20    1
    35    19    21   ar
    36    21    22   ar
    37    22    23   ar
    38    23    24   ar
    39    24    25   ar
    40    25    26    1
    41    26    27    1
    42     7     8   ar
    43     8     9   ar
    44     9     1   ar
    45    35    29   ar
    46     9     4   ar
    47    15    10   ar
    48    25    16   ar
    49    27    13    1
    50    24    18   ar
    51    37    40    1
    52    27    28    1
@<TRIPOS>MOLECULE
*****
 46 52 0 0 0
SMALL
GASTEIGER

@<TRIPOS>ATOM
      1 C         140.9674  140.9348  163.9960 C.ar    1  UNL1        0.0907
      2 C         141.7887  141.9062  164.7909 C.ar    1  UNL1        0.1496
      3 O         142.7364  142.5902  163.8507 O.2     1  UNL1       -0.4533
      4 C         142.5008  142.0414  162.4747 C.ar    1  UNL1        0.1467
      5 C         143.1406  142.3412  161.1515 C.ar    1  UNL1        0.0536
      6 C         142.6871  141.6178  159.9181 C.ar    1  UNL1        0.0730
      7 C         141.5939  140.5948  160.0080 C.ar    1  UNL1        0.0327
      8 C         140.9541  140.2950  161.3311 C.ar    1  UNL1        0.0061
      9 C         141.4075  141.0183  162.5645 C.ar    1  UNL1        0.0420
     10 C         141.1404  139.8714  158.7746 C.ar    1  UNL1        0.0826
     11 C         140.0738  140.4680  157.9047 C.ar    1  UNL1        0.0205
     12 C         139.6203  139.7447  156.6714 C.ar    1  UNL1        0.0175
     13 C         140.2333  138.4248  156.3079 C.ar    1  UNL1        0.0653
     14 C         141.2998  137.8283  157.1778 C.ar    1  UNL1        0.1101
     15 N         141.7534  138.5516  158.4111 N.ar    1  UNL1       -0.2426
     16 C         141.9129  136.5083  156.8143 C.ar    1  UNL1        0.0803
     17 C         142.9752  135.6796  157.4734 C.ar    1  UNL1        0.0225
     18 C         143.1783  134.4441  156.6475 C.ar    1  UNL1        0.0448
     19 C         144.0952  133.2680  156.8093 C.ar    1  UNL1        0.1415
     20 F         145.0321  133.2028  157.9790 F       1  UNL1       -0.2041
     21 C         144.0753  132.1572  155.8015 C.ar    1  UNL1        0.0297
     22 C         143.1384  132.2224  154.6318 C.ar    1  UNL1        0.0038
     23 C         142.2215  133.3984  154.4700 C.ar    1  UNL1        0.0174
     24 C         142.2414  134.5092  155.4779 C.ar    1  UNL1        0.0634
     25 N         141.4593  135.7850  155.5809 N.ar    1  UNL1       -0.3085
     26 C         140.3928  136.3816  154.7111 C.3     1  UNL1        0.2004
     27 N         139.7798  137.7015  155.0746 N.pl3   1  UNL1       -0.3126
     28 H         139.0798  138.0930  154.5036 H       1  UNL1        0.1486
     29 C         141.6811  142.1507  166.2670 C.ar    1  UNL1        0.0349
     30 C         140.4575  142.8103  166.8307 C.ar    1  UNL1        0.0053
     31 C         140.3498  143.0548  168.3067 C.ar    1  UNL1        0.0297
     32 C         141.4658  142.6398  169.2190 C.ar    1  UNL1        0.1401
     33 F         141.3582  142.8843  170.6950 F       1  UNL1       -0.2042
     34 C         142.6895  141.9803  168.6553 C.ar    1  UNL1        0.0297
     35 C         142.7971  141.7357  167.1793 C.ar    1  UNL1        0.0053
     36 C         139.0342  137.6555  165.1181 C.3     1  UNL1        0.1109
     37 N         140.1072  138.5530  164.5766 N.am    1  UNL1       -0.2991
     38 C         139.8945  140.0373  164.5375 C.2     1  UNL1        0.2490
     39 O         138.6087  140.6241  165.0401 O.2     1  UNL1       -0.2700
     40 H         140.9510  138.1678  164.2468 H       1  UNL1        0.1498
     41 N         143.3269  141.9176  158.5949 N.pl3   1  UNL1       -0.1924
     42 C         144.4737  141.0814  158.1098 C.3     1  UNL1        0.1388
     43 S         142.8198  143.0537  157.7569 S.O2    1  UNL1        0.0588
     44 C         142.3127  144.1897  156.9189 C.3     1  UNL1        0.1999
     45 O         142.9746  143.9835  158.9237 O.2     1  UNL1       -0.1542
     46 O         142.6650  142.1239  156.5901 O.2     1  UNL1       -0.1542
@<TRIPOS>BOND
     1    36    37    1
     2    37    38   am
     3    38    39    2
     4    38     1    1
     5     1     2   ar
     6     2    29    1
     7    29    30   ar
     8    30    31   ar
     9    31    32   ar
    10    32    33    1
    11    32    34   ar
    12    34    35   ar
    13     2     3   ar
    14     3     4   ar
    15     4     5   ar
    16     5     6   ar
    17     6    41    1
    18    41    42    1
    19    41    43    1
    20    43    44    1
    21    43    45    2
    22    43    46    2
    23     6     7   ar
    24     7    10    1
    25    10    11   ar
    26    11    12   ar
    27    12    13   ar
    28    13    14   ar
    29    14    15   ar
    30    14    16    1
    31    16    17   ar
    32    17    18   ar
    33    18    19   ar
    34    19    20    1
    35    19    21   ar
    36    21    22   ar
    37    22    23   ar
    38    23    24   ar
    39    24    25   ar
    40    25    26    1
    41    26    27    1
    42     7     8   ar
    43     8     9   ar
    44     9     1   ar
    45    35    29   ar
    46     9     4   ar
    47    15    10   ar
    48    25    16   ar
    49    27    13    1
    50    24    18   ar
    51    37    40    1
    52    27    28    1
@<TRIPOS>MOLECULE
*****
 46 52 0 0 0
SMALL
GASTEIGER

@<TRIPOS>ATOM
      1 C         139.6914  141.1975  160.5958 C.ar    1  UNL1        0.0907
      2 C         140.1192  142.5557  161.0672 C.ar    1  UNL1        0.1496
      3 O         141.0314  143.1404  160.0299 O.2     1  UNL1       -0.4533
      4 C         141.1674  142.1435  158.9174 C.ar    1  UNL1        0.1467
      5 C         141.9383  142.1741  157.6310 C.ar    1  UNL1        0.0536
      6 C         141.8811  141.0038  156.6944 C.ar    1  UNL1        0.0730
      7 C         141.0530  139.8030  157.0441 C.ar    1  UNL1        0.0327
      8 C         140.2820  139.7725  158.3305 C.ar    1  UNL1        0.0061
      9 C         140.3392  140.9427  159.2671 C.ar    1  UNL1        0.0420
     10 C         140.9958  138.6327  156.1075 C.ar    1  UNL1        0.0826
     11 C         140.1457  138.7006  154.8735 C.ar    1  UNL1        0.0205
     12 C         140.0885  137.5304  153.9369 C.ar    1  UNL1        0.0175
     13 C         140.8813  136.2923  154.2343 C.ar    1  UNL1        0.0653
     14 C         141.7314  136.2244  155.4683 C.ar    1  UNL1        0.1101
     15 N         141.7886  137.3946  156.4049 N.ar    1  UNL1       -0.2426
     16 C         142.5242  134.9863  155.7656 C.ar    1  UNL1        0.0803
     17 C         143.4440  134.6308  156.8959 C.ar    1  UNL1        0.0225
     18 C         143.9553  133.2409  156.6579 C.ar    1  UNL1        0.0448
     19 C         144.8926  132.3686  157.4393 C.ar    1  UNL1        0.1415
     20 F         145.4965  132.8722  158.7167 F       1  UNL1       -0.2041
     21 C         145.2262  130.9929  156.9432 C.ar    1  UNL1        0.0297
     22 C         144.6223  130.4893  155.6658 C.ar    1  UNL1        0.0038
     23 C         143.6850  131.3615  154.8844 C.ar    1  UNL1        0.0174
     24 C         143.3514  132.7373  155.3805 C.ar    1  UNL1        0.0634
     25 N         142.4670  133.8160  154.8290 N.ar    1  UNL1       -0.3085
     26 C         141.6169  133.8839  153.5950 C.3     1  UNL1        0.2004
     27 N         140.8241  135.1220  153.2976 N.pl3   1  UNL1       -0.3126
     28 H         140.2661  135.1666  152.4877 H       1  UNL1        0.1486
     29 C         139.7071  143.2137  162.3507 C.ar    1  UNL1        0.0349
     30 C         138.3064  143.7245  162.5156 C.ar    1  UNL1        0.0053
     31 C         137.8942  144.3825  163.7990 C.ar    1  UNL1        0.0297
     32 C         138.8828  144.5297  164.9175 C.ar    1  UNL1        0.1401
     33 F         138.4707  145.1877  166.2010 F       1  UNL1       -0.2042
     34 C         140.2835  144.0189  164.7526 C.ar    1  UNL1        0.0297
     35 C         140.6956  143.3610  163.4692 C.ar    1  UNL1        0.0053
     36 C         138.3920  138.0263  162.5971 C.3     1  UNL1        0.1109
     37 N         139.3069  138.9650  161.8679 N.am    1  UNL1       -0.2991
     38 C         138.7765  140.2588  161.3250 C.2     1  UNL1        0.2490
     39 O         137.3311  140.6138  161.5114 O.2     1  UNL1       -0.2700
     40 H         140.2556  138.7319  161.7455 H       1  UNL1        0.1498
     41 N         142.6521  141.0343  155.4080 N.pl3   1  UNL1       -0.1924
     42 C         142.1520  141.8505  154.2531 C.3     1  UNL1        0.1388
     43 S         143.9231  140.2487  155.2766 S.O2    1  UNL1        0.0588
     44 C         145.1941  139.4630  155.1451 C.3     1  UNL1        0.1999
     45 O         144.4102  140.8192  156.5755 O.2     1  UNL1       -0.1542
     46 O         143.4361  139.6781  153.9777 O.2     1  UNL1       -0.1542
@<TRIPOS>BOND
     1    36    37    1
     2    37    38   am
     3    38    39    2
     4    38     1    1
     5     1     2   ar
     6     2    29    1
     7    29    30   ar
     8    30    31   ar
     9    31    32   ar
    10    32    33    1
    11    32    34   ar
    12    34    35   ar
    13     2     3   ar
    14     3     4   ar
    15     4     5   ar
    16     5     6   ar
    17     6    41    1
    18    41    42    1
    19    41    43    1
    20    43    44    1
    21    43    45    2
    22    43    46    2
    23     6     7   ar
    24     7    10    1
    25    10    11   ar
    26    11    12   ar
    27    12    13   ar
    28    13    14   ar
    29    14    15   ar
    30    14    16    1
    31    16    17   ar
    32    17    18   ar
    33    18    19   ar
    34    19    20    1
    35    19    21   ar
    36    21    22   ar
    37    22    23   ar
    38    23    24   ar
    39    24    25   ar
    40    25    26    1
    41    26    27    1
    42     7     8   ar
    43     8     9   ar
    44     9     1   ar
    45    35    29   ar
    46     9     4   ar
    47    15    10   ar
    48    25    16   ar
    49    27    13    1
    50    24    18   ar
    51    37    40    1
    52    27    28    1
@<TRIPOS>MOLECULE
*****
 46 52 0 0 0
SMALL
GASTEIGER

@<TRIPOS>ATOM
      1 C         141.7690  141.3030  163.3551 C.ar    1  UNL1        0.0907
      2 C         141.3965  140.0758  164.1330 C.ar    1  UNL1        0.1496
      3 O         141.1090  138.9761  163.1542 O.2     1  UNL1       -0.4533
      4 C         141.3036  139.5238  161.7714 C.ar    1  UNL1        0.1467
      5 C         141.1622  138.8987  160.4152 C.ar    1  UNL1        0.0536
      6 C         141.4287  139.7119  159.1831 C.ar    1  UNL1        0.0730
      7 C         141.8366  141.1500  159.3073 C.ar    1  UNL1        0.0327
      8 C         141.9780  141.7750  160.6635 C.ar    1  UNL1        0.0061
      9 C         141.7116  140.9619  161.8955 C.ar    1  UNL1        0.0420
     10 C         142.1030  141.9631  158.0753 C.ar    1  UNL1        0.0826
     11 C         141.0117  142.8028  157.4804 C.ar    1  UNL1        0.0205
     12 C         141.2781  143.6160  156.2484 C.ar    1  UNL1        0.0175
     13 C         142.6358  143.5893  155.6113 C.ar    1  UNL1        0.0653
     14 C         143.7271  142.7496  156.2062 C.ar    1  UNL1        0.1101
     15 N         143.4607  141.9365  157.4382 N.ar    1  UNL1       -0.2426
     16 C         145.0849  142.7230  155.5691 C.ar    1  UNL1        0.0803
     17 C         146.3472  141.9960  155.9266 C.ar    1  UNL1        0.0225
     18 C         147.3939  142.3598  154.9156 C.ar    1  UNL1        0.0448
     19 C         148.8279  141.9474  154.7626 C.ar    1  UNL1        0.1415
     20 F         149.4435  140.9955  155.7450 F       1  UNL1       -0.2041
     21 C         149.6464  142.4867  153.6271 C.ar    1  UNL1        0.0297
     22 C         149.0309  143.4386  152.6448 C.ar    1  UNL1        0.0038
     23 C         147.5968  143.8510  152.7978 C.ar    1  UNL1        0.0174
     24 C         146.7783  143.3116  153.9332 C.ar    1  UNL1        0.0634
     25 N         145.3513  143.5361  154.3371 N.ar    1  UNL1       -0.3085
     26 C         144.2600  144.3758  153.7422 C.3     1  UNL1        0.2004
     27 N         142.9023  144.4025  154.3792 N.pl3   1  UNL1       -0.3126
     28 H         142.1861  144.9536  153.9888 H       1  UNL1        0.1486
     29 C         141.3244  139.9672  165.6274 C.ar    1  UNL1        0.0349
     30 C         140.0185  140.1838  166.3329 C.ar    1  UNL1        0.0053
     31 C         139.9463  140.0753  167.8272 C.ar    1  UNL1        0.0297
     32 C         141.1800  139.7502  168.6160 C.ar    1  UNL1        0.1401
     33 F         141.1078  139.6416  170.1103 F       1  UNL1       -0.2042
     34 C         142.4859  139.5335  167.9105 C.ar    1  UNL1        0.0297
     35 C         142.5581  139.6421  166.4162 C.ar    1  UNL1        0.0053
     36 C         143.8280  144.5906  164.1929 C.3     1  UNL1        0.1109
     37 N         143.4624  143.2565  163.6131 N.am    1  UNL1       -0.2991
     38 C         142.1346  142.6372  163.9350 C.2     1  UNL1        0.2490
     39 O         141.1726  143.3522  164.8367 O.2     1  UNL1       -0.2700
     40 H         144.0938  142.7872  163.0212 H       1  UNL1        0.1498
     41 N         141.2872  139.0868  157.8269 N.pl3   1  UNL1       -0.1924
     42 C         140.3082  139.6501  156.8399 C.3     1  UNL1        0.1388
     43 S         142.1248  137.8985  157.4577 S.O2    1  UNL1        0.0588
     44 C         142.9624  136.7101  157.0885 C.3     1  UNL1        0.1999
     45 O         143.3599  138.6380  157.8790 O.2     1  UNL1       -0.1542
     46 O         140.8897  137.1589  157.0364 O.2     1  UNL1       -0.1542
@<TRIPOS>BOND
     1    36    37    1
     2    37    38   am
     3    38    39    2
     4    38     1    1
     5     1     2   ar
     6     2    29    1
     7    29    30   ar
     8    30    31   ar
     9    31    32   ar
    10    32    33    1
    11    32    34   ar
    12    34    35   ar
    13     2     3   ar
    14     3     4   ar
    15     4     5   ar
    16     5     6   ar
    17     6    41    1
    18    41    42    1
    19    41    43    1
    20    43    44    1
    21    43    45    2
    22    43    46    2
    23     6     7   ar
    24     7    10    1
    25    10    11   ar
    26    11    12   ar
    27    12    13   ar
    28    13    14   ar
    29    14    15   ar
    30    14    16    1
    31    16    17   ar
    32    17    18   ar
    33    18    19   ar
    34    19    20    1
    35    19    21   ar
    36    21    22   ar
    37    22    23   ar
    38    23    24   ar
    39    24    25   ar
    40    25    26    1
    41    26    27    1
    42     7     8   ar
    43     8     9   ar
    44     9     1   ar
    45    35    29   ar
    46     9     4   ar
    47    15    10   ar
    48    25    16   ar
    49    27    13    1
    50    24    18   ar
    51    37    40    1
    52    27    28    1
@<TRIPOS>MOLECULE
*****
 46 52 0 0 0
SMALL
GASTEIGER

@<TRIPOS>ATOM
      1 C         141.9391  141.5990  163.8294 C.ar    1  UNL1        0.0907
      2 C         141.2501  140.6769  164.7911 C.ar    1  UNL1        0.1496
      3 O         140.3536  139.7695  164.0018 O.2     1  UNL1       -0.4533
      4 C         140.4886  140.1308  162.5523 C.ar    1  UNL1        0.1467
      5 C         139.8459  139.5764  161.3156 C.ar    1  UNL1        0.0536
      6 C         140.1830  140.1526  159.9723 C.ar    1  UNL1        0.0730
      7 C         141.1629  141.2833  159.8658 C.ar    1  UNL1        0.0327
      8 C         141.8056  141.8378  161.1025 C.ar    1  UNL1        0.0061
      9 C         141.4685  141.2616  162.4457 C.ar    1  UNL1        0.0420
     10 C         141.5001  141.8596  158.5225 C.ar    1  UNL1        0.0826
     11 C         142.3821  141.0967  157.5791 C.ar    1  UNL1        0.0205
     12 C         142.7193  141.6729  156.2359 C.ar    1  UNL1        0.0175
     13 C         142.1744  143.0119  155.8361 C.ar    1  UNL1        0.0653
     14 C         141.2923  143.7748  156.7794 C.ar    1  UNL1        0.1101
     15 N         140.9552  143.1986  158.1227 N.ar    1  UNL1       -0.2426
     16 C         140.7474  145.1140  156.3795 C.ar    1  UNL1        0.0803
     17 C         139.8597  146.0900  157.0931 C.ar    1  UNL1        0.0225
     18 C         139.6483  147.2696  156.1908 C.ar    1  UNL1        0.0448
     19 C         138.8642  148.5367  156.3625 C.ar    1  UNL1        0.1415
     20 F         138.1071  148.7839  157.6337 F       1  UNL1       -0.2041
     21 C         138.8371  149.5568  155.2630 C.ar    1  UNL1        0.0297
     22 C         139.5941  149.3096  153.9919 C.ar    1  UNL1        0.0038
     23 C         140.3782  148.0424  153.8202 C.ar    1  UNL1        0.0174
     24 C         140.4053  147.0224  154.9197 C.ar    1  UNL1        0.0634
     25 N         141.0846  145.6902  155.0363 N.ar    1  UNL1       -0.3085
     26 C         141.9667  144.9273  154.0930 C.3     1  UNL1        0.2004
     27 N         142.5116  143.5882  154.4928 N.pl3   1  UNL1       -0.3126
     28 H         143.0905  143.0875  153.8736 H       1  UNL1        0.1486
     29 C         141.4265  140.6643  166.2807 C.ar    1  UNL1        0.0349
     30 C         140.6604  141.6305  167.1349 C.ar    1  UNL1        0.0053
     31 C         140.8368  141.6180  168.6244 C.ar    1  UNL1        0.0297
     32 C         141.7794  140.6393  169.2597 C.ar    1  UNL1        0.1401
     33 F         141.9559  140.6268  170.7493 F       1  UNL1       -0.2042
     34 C         142.5455  139.6731  168.4056 C.ar    1  UNL1        0.0297
     35 C         142.3691  139.6856  166.9161 C.ar    1  UNL1        0.0053
     36 C         143.7043  145.1458  164.0616 C.3     1  UNL1        0.1109
     37 N         142.7178  144.0744  163.7026 N.am    1  UNL1       -0.2991
     38 C         142.9255  142.6705  164.1884 C.2     1  UNL1        0.2490
     39 O         144.1197  142.3381  165.0330 O.2     1  UNL1       -0.2700
     40 H         141.9341  144.2926  163.1482 H       1  UNL1        0.1498
     41 N         139.5403  139.5982  158.7356 N.pl3   1  UNL1       -0.1924
     42 C         139.9723  138.2658  158.1987 C.3     1  UNL1        0.1388
     43 S         138.4655  140.3761  158.0357 S.O2    1  UNL1        0.0588
     44 C         137.3907  141.1540  157.3360 C.3     1  UNL1        0.1999
     45 O         139.1562  140.1501  156.7236 O.2     1  UNL1       -0.1542
     46 O         137.7747  140.6021  159.3479 O.2     1  UNL1       -0.1542
@<TRIPOS>BOND
     1    36    37    1
     2    37    38   am
     3    38    39    2
     4    38     1    1
     5     1     2   ar
     6     2    29    1
     7    29    30   ar
     8    30    31   ar
     9    31    32   ar
    10    32    33    1
    11    32    34   ar
    12    34    35   ar
    13     2     3   ar
    14     3     4   ar
    15     4     5   ar
    16     5     6   ar
    17     6    41    1
    18    41    42    1
    19    41    43    1
    20    43    44    1
    21    43    45    2
    22    43    46    2
    23     6     7   ar
    24     7    10    1
    25    10    11   ar
    26    11    12   ar
    27    12    13   ar
    28    13    14   ar
    29    14    15   ar
    30    14    16    1
    31    16    17   ar
    32    17    18   ar
    33    18    19   ar
    34    19    20    1
    35    19    21   ar
    36    21    22   ar
    37    22    23   ar
    38    23    24   ar
    39    24    25   ar
    40    25    26    1
    41    26    27    1
    42     7     8   ar
    43     8     9   ar
    44     9     1   ar
    45    35    29   ar
    46     9     4   ar
    47    15    10   ar
    48    25    16   ar
    49    27    13    1
    50    24    18   ar
    51    37    40    1
    52    27    28    1
@<TRIPOS>MOLECULE
*****
 46 52 0 0 0
SMALL
GASTEIGER

@<TRIPOS>ATOM
      1 C         140.9159  140.5086  164.6591 C.ar    1  UNL1        0.0907
      2 C         140.2666  141.4768  165.6031 C.ar    1  UNL1        0.1496
      3 O         139.5790  142.5303  164.7862 O.2     1  UNL1       -0.4533
      4 C         139.8033  142.2133  163.3374 C.ar    1  UNL1        0.1467
      5 C         139.3620  142.9009  162.0794 C.ar    1  UNL1        0.0536
      6 C         139.7469  142.3389  160.7429 C.ar    1  UNL1        0.0730
      7 C         140.5731  141.0895  160.6644 C.ar    1  UNL1        0.0327
      8 C         141.0144  140.4019  161.9224 C.ar    1  UNL1        0.0061
      9 C         140.6296  140.9637  163.2588 C.ar    1  UNL1        0.0420
     10 C         140.9580  140.5275  159.3279 C.ar    1  UNL1        0.0826
     11 C         140.0772  139.5147  158.6583 C.ar    1  UNL1        0.0205
     12 C         140.4620  138.9528  157.3219 C.ar    1  UNL1        0.0175
     13 C         141.7277  139.4037  156.6551 C.ar    1  UNL1        0.0653
     14 C         142.6085  140.4165  157.3247 C.ar    1  UNL1        0.1101
     15 N         142.2237  140.9784  158.6611 N.ar    1  UNL1       -0.2426
     16 C         143.8743  140.8674  156.6577 C.ar    1  UNL1        0.0803
     17 C         144.9339  141.8447  157.0723 C.ar    1  UNL1        0.0225
     18 C         145.9737  141.8868  155.9920 C.ar    1  UNL1        0.0448
     19 C         147.2465  142.6685  155.8538 C.ar    1  UNL1        0.1415
     20 F         147.6636  143.6199  156.9360 F       1  UNL1       -0.2041
     21 C         148.1022  142.4989  154.6335 C.ar    1  UNL1        0.0297
     22 C         147.6851  141.5476  153.5514 C.ar    1  UNL1        0.0038
     23 C         146.4123  140.7659  153.6896 C.ar    1  UNL1        0.0174
     24 C         145.5567  140.9355  154.9098 C.ar    1  UNL1        0.0634
     25 N         144.2591  140.3055  155.3213 N.ar    1  UNL1       -0.3085
     26 C         143.3783  139.2927  154.6517 C.3     1  UNL1        0.2004
     27 N         142.1126  138.8418  155.3186 N.pl3   1  UNL1       -0.3126
     28 H         141.5345  138.1770  154.8791 H       1  UNL1        0.1486
     29 C         140.2992  141.4042  167.1010 C.ar    1  UNL1        0.0349
     30 C         139.6136  140.2755  167.8123 C.ar    1  UNL1        0.0053
     31 C         139.6462  140.2028  169.3101 C.ar    1  UNL1        0.0297
     32 C         140.3644  141.2589  170.0968 C.ar    1  UNL1        0.1401
     33 F         140.3970  141.1863  171.5947 F       1  UNL1       -0.2042
     34 C         141.0499  142.3877  169.3855 C.ar    1  UNL1        0.0297
     35 C         141.0174  142.4604  167.8877 C.ar    1  UNL1        0.0053
     36 C         143.7670  138.2422  166.2354 C.3     1  UNL1        0.1109
     37 N         142.9711  139.4530  165.8472 N.am    1  UNL1       -0.2991
     38 C         141.7117  139.2979  165.0473 C.2     1  UNL1        0.2490
     39 O         141.2483  137.9320  164.6356 O.2     1  UNL1       -0.2700
     40 H         143.2753  140.3495  166.1175 H       1  UNL1        0.1498
     41 N         139.3056  143.0265  159.4850 N.pl3   1  UNL1       -0.1924
     42 C         138.1142  142.5163  158.7297 C.3     1  UNL1        0.1388
     43 S         140.0556  144.2244  158.9823 S.O2    1  UNL1        0.0588
     44 C         140.8056  145.4222  158.4796 C.3     1  UNL1        0.1999
     45 O         140.4134  143.4760  157.7326 O.2     1  UNL1       -0.1542
     46 O         139.6978  144.9728  160.2320 O.2     1  UNL1       -0.1542
@<TRIPOS>BOND
     1    36    37    1
     2    37    38   am
     3    38    39    2
     4    38     1    1
     5     1     2   ar
     6     2    29    1
     7    29    30   ar
     8    30    31   ar
     9    31    32   ar
    10    32    33    1
    11    32    34   ar
    12    34    35   ar
    13     2     3   ar
    14     3     4   ar
    15     4     5   ar
    16     5     6   ar
    17     6    41    1
    18    41    42    1
    19    41    43    1
    20    43    44    1
    21    43    45    2
    22    43    46    2
    23     6     7   ar
    24     7    10    1
    25    10    11   ar
    26    11    12   ar
    27    12    13   ar
    28    13    14   ar
    29    14    15   ar
    30    14    16    1
    31    16    17   ar
    32    17    18   ar
    33    18    19   ar
    34    19    20    1
    35    19    21   ar
    36    21    22   ar
    37    22    23   ar
    38    23    24   ar
    39    24    25   ar
    40    25    26    1
    41    26    27    1
    42     7     8   ar
    43     8     9   ar
    44     9     1   ar
    45    35    29   ar
    46     9     4   ar
    47    15    10   ar
    48    25    16   ar
    49    27    13    1
    50    24    18   ar
    51    37    40    1
    52    27    28    1
@<TRIPOS>MOLECULE
*****
 46 52 0 0 0
SMALL
GASTEIGER

@<TRIPOS>ATOM
      1 C         141.6606  140.9485  164.3827 C.ar    1  UNL1        0.0907
      2 C         142.1241  142.1129  165.2069 C.ar    1  UNL1        0.1496
      3 O         142.7747  143.1026  164.2864 O.2     1  UNL1       -0.4533
      4 C         142.7132  142.5498  162.8933 C.ar    1  UNL1        0.1467
      5 C         143.1953  143.0867  161.5783 C.ar    1  UNL1        0.0536
      6 C         142.9888  142.2923  160.3227 C.ar    1  UNL1        0.0730
      7 C         142.3002  140.9610  160.3823 C.ar    1  UNL1        0.0327
      8 C         141.8182  140.4241  161.6973 C.ar    1  UNL1        0.0061
      9 C         142.0246  141.2185  162.9528 C.ar    1  UNL1        0.0420
     10 C         142.0937  140.1666  159.1267 C.ar    1  UNL1        0.0826
     11 C         143.1125  139.1487  158.7072 C.ar    1  UNL1        0.0205
     12 C         142.9060  138.3542  157.4518 C.ar    1  UNL1        0.0175
     13 C         141.6808  138.5777  156.6158 C.ar    1  UNL1        0.0653
     14 C         140.6620  139.5956  157.0353 C.ar    1  UNL1        0.1101
     15 N         140.8685  140.3901  158.2908 N.ar    1  UNL1       -0.2426
     16 C         139.4368  139.8191  156.1993 C.ar    1  UNL1        0.0803
     17 C         138.2685  140.7463  156.3587 C.ar    1  UNL1        0.0225
     18 C         137.3399  140.5248  155.2016 C.ar    1  UNL1        0.0448
     19 C         136.0298  141.1546  154.8312 C.ar    1  UNL1        0.1415
     20 F         135.4353  142.2186  155.7056 F       1  UNL1       -0.2041
     21 C         135.3143  140.7203  153.5865 C.ar    1  UNL1        0.0297
     22 C         135.9087  139.6563  152.7121 C.ar    1  UNL1        0.0038
     23 C         137.2188  139.0266  153.0825 C.ar    1  UNL1        0.0174
     24 C         137.9344  139.4609  154.3272 C.ar    1  UNL1        0.0634
     25 N         139.2303  139.0247  154.9439 N.ar    1  UNL1       -0.3085
     26 C         140.2491  138.0068  154.5243 C.3     1  UNL1        0.2004
     27 N         141.4743  137.7833  155.3603 N.pl3   1  UNL1       -0.3126
     28 H         142.1429  137.1152  155.0849 H       1  UNL1        0.1486
     29 C         141.9650  142.2616  166.6910 C.ar    1  UNL1        0.0349
     30 C         143.1570  142.1220  167.5908 C.ar    1  UNL1        0.0053
     31 C         142.9979  142.2706  169.0749 C.ar    1  UNL1        0.0297
     32 C         141.6468  142.5588  169.6592 C.ar    1  UNL1        0.1401
     33 F         141.4877  142.7075  171.1434 F       1  UNL1       -0.2042
     34 C         140.4548  142.6984  168.7594 C.ar    1  UNL1        0.0297
     35 C         140.6139  142.5498  167.2753 C.ar    1  UNL1        0.0053
     36 C         138.8390  138.2264  164.9978 C.3     1  UNL1        0.1109
     37 N         139.5430  139.4465  164.4826 N.am    1  UNL1       -0.2991
     38 C         140.9565  139.7283  164.8979 C.2     1  UNL1        0.2490
     39 O         141.6660  138.7899  165.8284 O.2     1  UNL1       -0.2700
     40 H         139.0773  140.0625  163.8718 H       1  UNL1        0.1498
     41 N         143.4709  142.8292  159.0077 N.pl3   1  UNL1       -0.1924
     42 C         144.8608  142.5205  158.5357 C.3     1  UNL1        0.1388
     43 S         142.5629  143.6748  158.1646 S.O2    1  UNL1        0.0588
     44 C         141.6551  144.5203  157.3215 C.3     1  UNL1        0.1999
     45 O         142.2706  144.5443  159.3514 O.2     1  UNL1       -0.1542
     46 O         142.8553  142.8053  156.9778 O.2     1  UNL1       -0.1542
@<TRIPOS>BOND
     1    36    37    1
     2    37    38   am
     3    38    39    2
     4    38     1    1
     5     1     2   ar
     6     2    29    1
     7    29    30   ar
     8    30    31   ar
     9    31    32   ar
    10    32    33    1
    11    32    34   ar
    12    34    35   ar
    13     2     3   ar
    14     3     4   ar
    15     4     5   ar
    16     5     6   ar
    17     6    41    1
    18    41    42    1
    19    41    43    1
    20    43    44    1
    21    43    45    2
    22    43    46    2
    23     6     7   ar
    24     7    10    1
    25    10    11   ar
    26    11    12   ar
    27    12    13   ar
    28    13    14   ar
    29    14    15   ar
    30    14    16    1
    31    16    17   ar
    32    17    18   ar
    33    18    19   ar
    34    19    20    1
    35    19    21   ar
    36    21    22   ar
    37    22    23   ar
    38    23    24   ar
    39    24    25   ar
    40    25    26    1
    41    26    27    1
    42     7     8   ar
    43     8     9   ar
    44     9     1   ar
    45    35    29   ar
    46     9     4   ar
    47    15    10   ar
    48    25    16   ar
    49    27    13    1
    50    24    18   ar
    51    37    40    1
    52    27    28    1
