@<TRIPOS>MOLECULE
*****
 31 34 0 0 0
SMALL
GASTEIGER

@<TRIPOS>ATOM
      1 N         144.2966  139.9052  163.9240 N.3     1  UNL1       -0.2700
      2 C         143.4613  139.5162  162.7404 C.3     1  UNL1        0.0897
      3 C         142.3152  138.5638  162.9117 C.3     1  UNL1        0.0897
      4 N         142.0043  138.0004  164.2667 N.3     1  UNL1       -0.2700
      5 C         142.8396  138.3894  165.4504 C.3     1  UNL1        0.0897
      6 C         143.9857  139.3418  165.2790 C.3     1  UNL1        0.0897
      7 C         145.4427  140.8576  163.7527 C.3     1  UNL1        0.0769
      8 C         145.2766  142.3039  164.1144 C.3     1  UNL1        0.0438
      9 C         142.7141  144.1235  161.6910 C.ar    1  UNL1        0.1479
     10 C         143.9143  143.3632  162.1723 C.ar    1  UNL1        0.0334
     11 C         144.0764  143.0641  163.6332 C.ar    1  UNL1       -0.0177
     12 C         143.0383  143.5252  164.6128 C.ar    1  UNL1       -0.0033
     13 C         141.8381  144.2855  164.1316 C.ar    1  UNL1        0.0130
     14 C         141.6760  144.5846  162.6706 C.ar    1  UNL1        0.1023
     15 C         141.9899  143.3806  159.3090 C.3     1  UNL1        0.2525
     16 O         142.5520  144.4226  160.2301 O.3     1  UNL1       -0.4708
     17 C         140.4758  145.3448  162.1895 C.1     1  UNL1        0.1035
     18 N         139.2756  146.1050  161.7083 N.1     1  UNL1       -0.1907
     19 C         140.8582  137.0480  164.4380 C.3     1  UNL1        0.0769
     20 C         139.5147  137.5604  164.8650 C.3     1  UNL1        0.0433
     21 C         139.2154  139.0287  164.7963 C.ar    1  UNL1       -0.0249
     22 C         139.5836  139.9236  165.9423 C.ar    1  UNL1       -0.0043
     23 C         139.2844  141.3918  165.8736 C.ar    1  UNL1        0.0059
     24 C         138.6170  141.9652  164.6588 C.ar    1  UNL1        0.0748
     25 C         138.2487  141.0702  163.5127 C.ar    1  UNL1        0.0233
     26 C         138.5479  139.6020  163.5814 C.ar    1  UNL1       -0.0260
     27 C         138.1797  138.7070  162.4353 C.3     1  UNL1        0.0305
     28 C         137.6041  141.9146  162.4537 C.3     1  UNL1        0.2352
     29 O         137.5740  143.3315  162.9453 O.3     1  UNL1       -0.4404
     30 C         138.2000  143.3627  164.3081 C.2     1  UNL1        0.3413
     31 O         138.3777  144.5781  165.1691 O.2     1  UNL1       -0.2449
@<TRIPOS>BOND
     1    15    16    1
     2    16     9    1
     3     9    10   ar
     4    10    11   ar
     5    11     8    1
     6     8     7    1
     7     7     1    1
     8     1     2    1
     9     2     3    1
    10     3     4    1
    11     4    19    1
    12    19    20    1
    13    20    21    1
    14    21    22   ar
    15    22    23   ar
    16    23    24   ar
    17    24    25   ar
    18    25    26   ar
    19    26    27    1
    20    25    28    1
    21    28    29    1
    22    29    30    1
    23    30    31    2
    24     4     5    1
    25     5     6    1
    26    11    12   ar
    27    12    13   ar
    28    13    14   ar
    29    14    17    1
    30    17    18    3
    31    14     9   ar
    32     6     1    1
    33    26    21   ar
    34    30    24    1
@<TRIPOS>MOLECULE
*****
 31 34 0 0 0
SMALL
GASTEIGER

@<TRIPOS>ATOM
      1 N         139.7568  138.6672  162.2234 N.3     1  UNL1       -0.2700
      2 C         141.1031  139.3283  162.1994 C.3     1  UNL1        0.0897
      3 C         142.0585  139.1257  163.3378 C.3     1  UNL1        0.0897
      4 N         141.6678  138.2621  164.5003 N.3     1  UNL1       -0.2700
      5 C         140.3216  137.6010  164.5245 C.3     1  UNL1        0.0897
      6 C         139.3661  137.8036  163.3860 C.3     1  UNL1        0.0897
      7 C         138.8012  138.8697  161.0851 C.3     1  UNL1        0.0769
      8 C         137.6982  139.8795  161.2023 C.3     1  UNL1        0.0438
      9 C         138.1100  143.5326  162.6973 C.ar    1  UNL1        0.1479
     10 C         137.9972  142.4101  161.7087 C.ar    1  UNL1        0.0334
     11 C         137.8111  141.0019  162.1909 C.ar    1  UNL1       -0.0177
     12 C         137.7378  140.7163  163.6616 C.ar    1  UNL1       -0.0033
     13 C         137.8506  141.8388  164.6501 C.ar    1  UNL1        0.0130
     14 C         138.0367  143.2470  164.1680 C.ar    1  UNL1        0.1023
     15 C         139.6765  145.4709  161.9630 C.3     1  UNL1        0.2525
     16 O         138.2962  144.9408  162.2151 O.3     1  UNL1       -0.4708
     17 C         138.1496  144.3695  165.1566 C.1     1  UNL1        0.1035
     18 N         138.2624  145.4919  166.1452 N.1     1  UNL1       -0.1907
     19 C         142.6233  138.0595  165.6387 C.3     1  UNL1        0.0769
     20 C         143.2827  139.2423  166.2839 C.3     1  UNL1        0.0433
     21 C         142.6162  139.9376  167.4340 C.ar    1  UNL1       -0.0249
     22 C         142.7143  139.3635  168.8162 C.ar    1  UNL1       -0.0043
     23 C         142.0479  140.0587  169.9662 C.ar    1  UNL1        0.0059
     24 C         141.2833  141.3281  169.7339 C.ar    1  UNL1        0.0748
     25 C         141.1852  141.9023  168.3517 C.ar    1  UNL1        0.0233
     26 C         141.8516  141.2071  167.2017 C.ar    1  UNL1       -0.0260
     27 C         141.7534  141.7812  165.8193 C.3     1  UNL1        0.0305
     28 C         140.3691  143.1585  168.4284 C.3     1  UNL1        0.2352
     29 O         139.9629  143.3607  169.8581 O.3     1  UNL1       -0.4404
     30 C         140.5279  142.2295  170.6650 C.2     1  UNL1        0.3413
     31 O         140.3659  142.0340  172.1433 O.2     1  UNL1       -0.2449
@<TRIPOS>BOND
     1    15    16    1
     2    16     9    1
     3     9    10   ar
     4    10    11   ar
     5    11     8    1
     6     8     7    1
     7     7     1    1
     8     1     2    1
     9     2     3    1
    10     3     4    1
    11     4    19    1
    12    19    20    1
    13    20    21    1
    14    21    22   ar
    15    22    23   ar
    16    23    24   ar
    17    24    25   ar
    18    25    26   ar
    19    26    27    1
    20    25    28    1
    21    28    29    1
    22    29    30    1
    23    30    31    2
    24     4     5    1
    25     5     6    1
    26    11    12   ar
    27    12    13   ar
    28    13    14   ar
    29    14    17    1
    30    17    18    3
    31    14     9   ar
    32     6     1    1
    33    26    21   ar
    34    30    24    1
@<TRIPOS>MOLECULE
*****
 31 34 0 0 0
SMALL
GASTEIGER

@<TRIPOS>ATOM
      1 N         144.2494  139.9262  164.0104 N.3     1  UNL1       -0.2700
      2 C         143.6530  139.7396  165.3741 C.3     1  UNL1        0.0897
      3 C         142.5392  138.7557  165.5773 C.3     1  UNL1        0.0897
      4 N         142.0216  137.9585  164.4170 N.3     1  UNL1       -0.2700
      5 C         142.6179  138.1451  163.0533 C.3     1  UNL1        0.0897
      6 C         143.7318  139.1290  162.8500 C.3     1  UNL1        0.0897
      7 C         145.3632  140.9101  163.8071 C.3     1  UNL1        0.0769
      8 C         145.1737  142.3476  164.1915 C.3     1  UNL1        0.0438
      9 C         142.6843  144.1077  161.6508 C.ar    1  UNL1        0.1479
     10 C         143.8565  143.3375  162.1828 C.ar    1  UNL1        0.0334
     11 C         144.0016  143.1178  163.6595 C.ar    1  UNL1       -0.0177
     12 C         142.9747  143.6683  164.6042 C.ar    1  UNL1       -0.0033
     13 C         141.8027  144.4385  164.0722 C.ar    1  UNL1        0.0130
     14 C         141.6575  144.6583  162.5954 C.ar    1  UNL1        0.1023
     15 C         141.8707  143.2885  159.3234 C.3     1  UNL1        0.2525
     16 O         142.5392  144.3274  160.1741 O.3     1  UNL1       -0.4708
     17 C         140.4854  145.4285  162.0635 C.1     1  UNL1        0.1035
     18 N         139.3133  146.1986  161.5316 N.1     1  UNL1       -0.1907
     19 C         140.9077  136.9746  164.6203 C.3     1  UNL1        0.0769
     20 C         139.4870  137.4520  164.6798 C.3     1  UNL1        0.0433
     21 C         139.0941  138.7254  163.9911 C.ar    1  UNL1       -0.0249
     22 C         138.9511  138.7575  162.4984 C.ar    1  UNL1       -0.0043
     23 C         138.5583  140.0309  161.8098 C.ar    1  UNL1        0.0059
     24 C         138.3085  141.2722  162.6140 C.ar    1  UNL1        0.0748
     25 C         138.4515  141.2401  164.1068 C.ar    1  UNL1        0.0233
     26 C         138.8443  139.9667  164.7954 C.ar    1  UNL1       -0.0260
     27 C         138.9874  139.9346  166.2883 C.3     1  UNL1        0.0305
     28 C         138.1429  142.6110  164.6317 C.3     1  UNL1        0.2352
     29 O         137.8091  143.4903  163.4632 O.3     1  UNL1       -0.4404
     30 C         137.9115  142.6629  162.2162 C.2     1  UNL1        0.3413
     31 O         137.6608  143.1421  160.8171 O.2     1  UNL1       -0.2449
@<TRIPOS>BOND
     1    15    16    1
     2    16     9    1
     3     9    10   ar
     4    10    11   ar
     5    11     8    1
     6     8     7    1
     7     7     1    1
     8     1     2    1
     9     2     3    1
    10     3     4    1
    11     4    19    1
    12    19    20    1
    13    20    21    1
    14    21    22   ar
    15    22    23   ar
    16    23    24   ar
    17    24    25   ar
    18    25    26   ar
    19    26    27    1
    20    25    28    1
    21    28    29    1
    22    29    30    1
    23    30    31    2
    24     4     5    1
    25     5     6    1
    26    11    12   ar
    27    12    13   ar
    28    13    14   ar
    29    14    17    1
    30    17    18    3
    31    14     9   ar
    32     6     1    1
    33    26    21   ar
    34    30    24    1
@<TRIPOS>MOLECULE
*****
 31 34 0 0 0
SMALL
GASTEIGER

@<TRIPOS>ATOM
      1 N         137.7637  140.4104  161.7871 N.3     1  UNL1       -0.2700
      2 C         137.4797  140.9057  163.1742 C.3     1  UNL1        0.0897
      3 C         137.7033  142.3490  163.5157 C.3     1  UNL1        0.0897
      4 N         138.2108  143.2973  162.4701 N.3     1  UNL1       -0.2700
      5 C         138.4948  142.8021  161.0830 C.3     1  UNL1        0.0897
      6 C         138.2712  141.3587  160.7415 C.3     1  UNL1        0.0897
      7 C         137.5401  138.9671  161.4455 C.3     1  UNL1        0.0769
      8 C         138.7059  138.0269  161.3618 C.3     1  UNL1        0.0438
      9 C         142.2220  138.3611  163.1717 C.ar    1  UNL1        0.1479
     10 C         141.1760  138.3564  162.0965 C.ar    1  UNL1        0.0334
     11 C         139.7517  138.0315  162.4370 C.ar    1  UNL1       -0.0177
     12 C         139.3734  137.7113  163.8528 C.ar    1  UNL1       -0.0033
     13 C         140.4193  137.7160  164.9279 C.ar    1  UNL1        0.0130
     14 C         141.8436  138.0409  164.5875 C.ar    1  UNL1        0.1023
     15 C         144.1124  138.6124  161.4074 C.3     1  UNL1        0.2525
     16 O         143.6462  138.6859  162.8312 O.3     1  UNL1       -0.4708
     17 C         142.8894  138.0455  165.6627 C.1     1  UNL1        0.1035
     18 N         143.9353  138.0502  166.7379 N.1     1  UNL1       -0.1907
     19 C         138.4344  144.7406  162.8117 C.3     1  UNL1        0.0769
     20 C         139.6058  145.1378  163.6603 C.3     1  UNL1        0.0433
     21 C         140.8914  144.3701  163.5708 C.ar    1  UNL1       -0.0249
     22 C         141.7969  144.5588  162.3901 C.ar    1  UNL1       -0.0043
     23 C         143.0825  143.7911  162.3005 C.ar    1  UNL1        0.0059
     24 C         143.4625  142.8347  163.3917 C.ar    1  UNL1        0.0748
     25 C         142.5569  142.6459  164.5725 C.ar    1  UNL1        0.0233
     26 C         141.2713  143.4136  164.6621 C.ar    1  UNL1       -0.0260
     27 C         140.3657  143.2249  165.8429 C.3     1  UNL1        0.0305
     28 C         143.1915  141.6409  165.4875 C.3     1  UNL1        0.2352
     29 O         144.4894  141.2086  164.8721 O.3     1  UNL1       -0.4404
     30 C         144.6568  141.9463  163.5769 C.2     1  UNL1        0.3413
     31 O         145.8152  141.8182  162.6326 O.2     1  UNL1       -0.2449
@<TRIPOS>BOND
     1    15    16    1
     2    16     9    1
     3     9    10   ar
     4    10    11   ar
     5    11     8    1
     6     8     7    1
     7     7     1    1
     8     1     2    1
     9     2     3    1
    10     3     4    1
    11     4    19    1
    12    19    20    1
    13    20    21    1
    14    21    22   ar
    15    22    23   ar
    16    23    24   ar
    17    24    25   ar
    18    25    26   ar
    19    26    27    1
    20    25    28    1
    21    28    29    1
    22    29    30    1
    23    30    31    2
    24     4     5    1
    25     5     6    1
    26    11    12   ar
    27    12    13   ar
    28    13    14   ar
    29    14    17    1
    30    17    18    3
    31    14     9   ar
    32     6     1    1
    33    26    21   ar
    34    30    24    1
@<TRIPOS>MOLECULE
*****
 31 34 0 0 0
SMALL
GASTEIGER

@<TRIPOS>ATOM
      1 N         138.0677  143.1063  162.7776 N.3     1  UNL1       -0.2700
      2 C         137.7045  142.0917  163.8211 C.3     1  UNL1        0.0897
      3 C         137.6041  140.6409  163.4537 C.3     1  UNL1        0.0897
      4 N         137.8670  140.2046  162.0428 N.3     1  UNL1       -0.2700
      5 C         138.2302  141.2191  160.9993 C.3     1  UNL1        0.0897
      6 C         138.3306  142.6700  161.3668 C.3     1  UNL1        0.0897
      7 C         138.1681  144.5572  163.1449 C.3     1  UNL1        0.0769
      8 C         139.3240  145.0443  163.9675 C.3     1  UNL1        0.0438
      9 C         142.4930  142.7654  164.6845 C.ar    1  UNL1        0.1479
     10 C         141.1443  143.4051  164.8331 C.ar    1  UNL1        0.0334
     11 C         140.6726  144.4046  163.8189 C.ar    1  UNL1       -0.0177
     12 C         141.5493  144.7643  162.6563 C.ar    1  UNL1       -0.0033
     13 C         142.8979  144.1246  162.5077 C.ar    1  UNL1        0.0130
     14 C         143.3698  143.1251  163.5219 C.ar    1  UNL1        0.1023
     15 C         143.0097  142.1358  167.1517 C.3     1  UNL1        0.2525
     16 O         142.9647  141.7659  165.6987 O.3     1  UNL1       -0.4708
     17 C         144.7183  142.4854  163.3733 C.1     1  UNL1        0.1035
     18 N         146.0669  141.8456  163.2246 N.1     1  UNL1       -0.1907
     19 C         137.7666  138.7537  161.6755 C.3     1  UNL1        0.0769
     20 C         139.0079  137.9173  161.5773 C.3     1  UNL1        0.0433
     21 C         140.0845  138.0483  162.6136 C.ar    1  UNL1       -0.0249
     22 C         139.7844  137.7384  164.0502 C.ar    1  UNL1       -0.0043
     23 C         140.8609  137.8694  165.0864 C.ar    1  UNL1        0.0059
     24 C         142.2376  138.3103  164.6861 C.ar    1  UNL1        0.0748
     25 C         142.5377  138.6203  163.2495 C.ar    1  UNL1        0.0233
     26 C         141.4612  138.4893  162.2132 C.ar    1  UNL1       -0.0260
     27 C         141.7613  138.7992  160.7766 C.3     1  UNL1        0.0305
     28 C         143.9775  139.0301  163.1547 C.3     1  UNL1        0.2352
     29 O         144.5672  138.9735  164.5328 O.3     1  UNL1       -0.4404
     30 C         143.4919  138.5286  165.4792 C.2     1  UNL1        0.3413
     31 O         143.6442  138.3359  166.9590 O.2     1  UNL1       -0.2449
@<TRIPOS>BOND
     1    15    16    1
     2    16     9    1
     3     9    10   ar
     4    10    11   ar
     5    11     8    1
     6     8     7    1
     7     7     1    1
     8     1     2    1
     9     2     3    1
    10     3     4    1
    11     4    19    1
    12    19    20    1
    13    20    21    1
    14    21    22   ar
    15    22    23   ar
    16    23    24   ar
    17    24    25   ar
    18    25    26   ar
    19    26    27    1
    20    25    28    1
    21    28    29    1
    22    29    30    1
    23    30    31    2
    24     4     5    1
    25     5     6    1
    26    11    12   ar
    27    12    13   ar
    28    13    14   ar
    29    14    17    1
    30    17    18    3
    31    14     9   ar
    32     6     1    1
    33    26    21   ar
    34    30    24    1
@<TRIPOS>MOLECULE
*****
 31 34 0 0 0
SMALL
GASTEIGER

@<TRIPOS>ATOM
      1 N         144.0845  140.0050  164.1115 N.3     1  UNL1       -0.2700
      2 C         143.2209  139.9005  165.3336 C.3     1  UNL1        0.0897
      3 C         142.0785  138.9290  165.3638 C.3     1  UNL1        0.0897
      4 N         141.7996  138.0618  164.1721 N.3     1  UNL1       -0.2700
      5 C         142.6631  138.1662  162.9500 C.3     1  UNL1        0.0897
      6 C         143.8056  139.1378  162.9198 C.3     1  UNL1        0.0897
      7 C         145.2269  140.9765  164.0812 C.3     1  UNL1        0.0769
      8 C         145.0062  142.4063  164.4773 C.3     1  UNL1        0.0438
      9 C         141.4772  144.1780  164.0807 C.ar    1  UNL1        0.1479
     10 C         142.6148  143.4020  164.6756 C.ar    1  UNL1        0.0334
     11 C         143.8687  143.1823  163.8823 C.ar    1  UNL1       -0.0177
     12 C         143.9852  143.7385  162.4941 C.ar    1  UNL1       -0.0033
     13 C         142.8476  144.5145  161.8993 C.ar    1  UNL1        0.0130
     14 C         141.5936  144.7342  162.6925 C.ar    1  UNL1        0.1023
     15 C         139.8658  143.4583  165.9874 C.3     1  UNL1        0.2525
     16 O         140.2232  144.3977  164.8740 O.3     1  UNL1       -0.4708
     17 C         140.4561  145.5102  162.0976 C.1     1  UNL1        0.1035
     18 N         139.3186  146.2861  161.5027 N.1     1  UNL1       -0.1907
     19 C         140.6571  137.0903  164.2024 C.3     1  UNL1        0.0769
     20 C         139.2567  137.5717  163.9639 C.3     1  UNL1        0.0433
     21 C         139.0121  138.7602  163.0820 C.ar    1  UNL1       -0.0249
     22 C         139.2557  138.6611  161.6053 C.ar    1  UNL1       -0.0043
     23 C         139.0112  139.8496  160.7234 C.ar    1  UNL1        0.0059
     24 C         138.5230  141.1372  161.3182 C.ar    1  UNL1        0.0748
     25 C         138.2794  141.2363  162.7950 C.ar    1  UNL1        0.0233
     26 C         138.5239  140.0478  163.6769 C.ar    1  UNL1       -0.0260
     27 C         138.2804  140.1469  165.1537 C.3     1  UNL1        0.0305
     28 C         137.8018  142.6265  163.0938 C.3     1  UNL1        0.2352
     29 O         137.7503  143.3865  161.8017 O.3     1  UNL1       -0.4404
     30 C         138.1960  142.4661  160.7043 C.2     1  UNL1        0.3413
     31 O         138.2969  142.8137  159.2486 O.2     1  UNL1       -0.2449
@<TRIPOS>BOND
     1    15    16    1
     2    16     9    1
     3     9    10   ar
     4    10    11   ar
     5    11     8    1
     6     8     7    1
     7     7     1    1
     8     1     2    1
     9     2     3    1
    10     3     4    1
    11     4    19    1
    12    19    20    1
    13    20    21    1
    14    21    22   ar
    15    22    23   ar
    16    23    24   ar
    17    24    25   ar
    18    25    26   ar
    19    26    27    1
    20    25    28    1
    21    28    29    1
    22    29    30    1
    23    30    31    2
    24     4     5    1
    25     5     6    1
    26    11    12   ar
    27    12    13   ar
    28    13    14   ar
    29    14    17    1
    30    17    18    3
    31    14     9   ar
    32     6     1    1
    33    26    21   ar
    34    30    24    1
@<TRIPOS>MOLECULE
*****
 31 34 0 0 0
SMALL
GASTEIGER

@<TRIPOS>ATOM
      1 N         139.6915  138.4870  164.0881 N.3     1  UNL1       -0.2700
      2 C         140.9373  137.8206  164.5920 C.3     1  UNL1        0.0897
      3 C         142.1169  137.6491  163.6816 C.3     1  UNL1        0.0897
      4 N         142.0509  138.1440  162.2671 N.3     1  UNL1       -0.2700
      5 C         140.8052  138.8105  161.7631 C.3     1  UNL1        0.0897
      6 C         139.6255  138.9820  162.6736 C.3     1  UNL1        0.0897
      7 C         138.5118  138.6586  164.9985 C.3     1  UNL1        0.0769
      8 C         138.3569  139.9196  165.7959 C.3     1  UNL1        0.0438
      9 C         141.0367  140.6005  168.6429 C.ar    1  UNL1        0.1479
     10 C         139.8592  140.0253  167.9129 C.ar    1  UNL1        0.0334
     11 C         139.5344  140.4947  166.5258 C.ar    1  UNL1       -0.0177
     12 C         140.3871  141.5393  165.8686 C.ar    1  UNL1       -0.0033
     13 C         141.5645  142.1143  166.5985 C.ar    1  UNL1        0.0130
     14 C         141.8894  141.6450  167.9857 C.ar    1  UNL1        0.1023
     15 C         140.8046  140.8586  171.2177 C.3     1  UNL1        0.2525
     16 O         141.3615  140.1310  170.0300 O.3     1  UNL1       -0.4708
     17 C         143.0669  142.2201  168.7155 C.1     1  UNL1        0.1035
     18 N         144.2444  142.7953  169.4453 N.1     1  UNL1       -0.1907
     19 C         143.2306  137.9725  161.3567 C.3     1  UNL1        0.0769
     20 C         144.1264  139.1390  161.0619 C.3     1  UNL1        0.0433
     21 C         144.2345  140.2684  162.0433 C.ar    1  UNL1       -0.0249
     22 C         144.8911  140.0460  163.3733 C.ar    1  UNL1       -0.0043
     23 C         144.9992  141.1753  164.3546 C.ar    1  UNL1        0.0059
     24 C         144.4506  142.5271  164.0058 C.ar    1  UNL1        0.0748
     25 C         143.7940  142.7496  162.6756 C.ar    1  UNL1        0.0233
     26 C         143.6859  141.6202  161.6943 C.ar    1  UNL1       -0.0260
     27 C         143.0292  141.8426  160.3641 C.3     1  UNL1        0.0305
     28 C         143.3491  144.1807  162.6118 C.3     1  UNL1        0.2352
     29 O         143.7309  144.8427  163.9025 O.3     1  UNL1       -0.4404
     30 C         144.4117  143.8207  164.7640 C.2     1  UNL1        0.3413
     31 O         144.9576  144.0519  166.1419 O.2     1  UNL1       -0.2449
@<TRIPOS>BOND
     1    15    16    1
     2    16     9    1
     3     9    10   ar
     4    10    11   ar
     5    11     8    1
     6     8     7    1
     7     7     1    1
     8     1     2    1
     9     2     3    1
    10     3     4    1
    11     4    19    1
    12    19    20    1
    13    20    21    1
    14    21    22   ar
    15    22    23   ar
    16    23    24   ar
    17    24    25   ar
    18    25    26   ar
    19    26    27    1
    20    25    28    1
    21    28    29    1
    22    29    30    1
    23    30    31    2
    24     4     5    1
    25     5     6    1
    26    11    12   ar
    27    12    13   ar
    28    13    14   ar
    29    14    17    1
    30    17    18    3
    31    14     9   ar
    32     6     1    1
    33    26    21   ar
    34    30    24    1
@<TRIPOS>MOLECULE
*****
 31 34 0 0 0
SMALL
GASTEIGER

@<TRIPOS>ATOM
      1 N         140.6145  144.5456  162.6880 N.3     1  UNL1       -0.2700
      2 C         142.0022  144.6606  163.2456 C.3     1  UNL1        0.0897
      3 C         143.1608  144.0636  162.5032 C.3     1  UNL1        0.0897
      4 N         142.9317  143.3515  161.2030 N.3     1  UNL1       -0.2700
      5 C         141.5440  143.2364  160.6453 C.3     1  UNL1        0.0897
      6 C         140.3854  143.8335  161.3878 C.3     1  UNL1        0.0897
      7 C         139.4559  145.1426  163.4304 C.3     1  UNL1        0.0769
      8 C         139.0624  144.5964  164.7709 C.3     1  UNL1        0.0438
      9 C         139.6889  140.9266  166.1458 C.ar    1  UNL1        0.1479
     10 C         139.8196  142.4079  165.9485 C.ar    1  UNL1        0.0334
     11 C         138.9316  143.1152  164.9681 C.ar    1  UNL1       -0.0177
     12 C         137.9129  142.3413  164.1850 C.ar    1  UNL1       -0.0033
     13 C         137.7822  140.8601  164.3823 C.ar    1  UNL1        0.0130
     14 C         138.6702  140.1527  165.3627 C.ar    1  UNL1        0.1023
     15 C         140.1880  140.1461  168.5731 C.3     1  UNL1        0.2525
     16 O         140.5769  140.2193  167.1263 O.3     1  UNL1       -0.4708
     17 C         138.5394  138.6715  165.5599 C.1     1  UNL1        0.1035
     18 N         138.4086  137.1903  165.7573 N.1     1  UNL1       -0.1907
     19 C         144.0903  142.7545  160.4606 C.3     1  UNL1        0.0769
     20 C         144.3903  141.2906  160.5906 C.3     1  UNL1        0.0433
     21 C         144.1433  140.5871  161.8923 C.ar    1  UNL1       -0.0249
     22 C         145.0639  140.8149  163.0544 C.ar    1  UNL1       -0.0043
     23 C         144.8169  140.1115  164.3560 C.ar    1  UNL1        0.0059
     24 C         143.6494  139.1802  164.4954 C.ar    1  UNL1        0.0748
     25 C         142.7287  138.9523  163.3333 C.ar    1  UNL1        0.0233
     26 C         142.9757  139.6557  162.0317 C.ar    1  UNL1       -0.0260
     27 C         142.0551  139.4279  160.8695 C.3     1  UNL1        0.0305
     28 C         141.6675  137.9843  163.7654 C.3     1  UNL1        0.2352
     29 O         141.9323  137.6139  165.1947 O.3     1  UNL1       -0.4404
     30 C         143.1571  138.3530  165.6458 C.2     1  UNL1        0.3413
     31 O         143.7803  138.2780  167.0082 O.2     1  UNL1       -0.2449
@<TRIPOS>BOND
     1    15    16    1
     2    16     9    1
     3     9    10   ar
     4    10    11   ar
     5    11     8    1
     6     8     7    1
     7     7     1    1
     8     1     2    1
     9     2     3    1
    10     3     4    1
    11     4    19    1
    12    19    20    1
    13    20    21    1
    14    21    22   ar
    15    22    23   ar
    16    23    24   ar
    17    24    25   ar
    18    25    26   ar
    19    26    27    1
    20    25    28    1
    21    28    29    1
    22    29    30    1
    23    30    31    2
    24     4     5    1
    25     5     6    1
    26    11    12   ar
    27    12    13   ar
    28    13    14   ar
    29    14    17    1
    30    17    18    3
    31    14     9   ar
    32     6     1    1
    33    26    21   ar
    34    30    24    1
@<TRIPOS>MOLECULE
*****
 31 34 0 0 0
SMALL
GASTEIGER

@<TRIPOS>ATOM
      1 N         139.4966  142.1520  160.3683 N.3     1  UNL1       -0.2700
      2 C         138.3628  142.1932  161.3497 C.3     1  UNL1        0.0897
      3 C         137.9737  140.9532  162.0986 C.3     1  UNL1        0.0897
      4 N         138.7183  139.6720  161.8663 N.3     1  UNL1       -0.2700
      5 C         139.8520  139.6307  160.8850 C.3     1  UNL1        0.0897
      6 C         140.2411  140.8708  160.1360 C.3     1  UNL1        0.0897
      7 C         139.8857  143.3920  159.6193 C.3     1  UNL1        0.0769
      8 C         140.2938  144.6247  160.3702 C.3     1  UNL1        0.0438
      9 C         143.5749  143.7365  162.4185 C.ar    1  UNL1        0.1479
     10 C         142.5926  143.8370  161.2892 C.ar    1  UNL1        0.0334
     11 C         141.2760  144.5243  161.4994 C.ar    1  UNL1       -0.0177
     12 C         140.9416  145.1111  162.8387 C.ar    1  UNL1       -0.0033
     13 C         141.9239  145.0106  163.9679 C.ar    1  UNL1        0.0130
     14 C         143.2405  144.3233  163.7578 C.ar    1  UNL1        0.1023
     15 C         145.0301  141.5861  162.5082 C.3     1  UNL1        0.2525
     16 O         144.8915  143.0492  162.2083 O.3     1  UNL1       -0.4708
     17 C         144.2227  144.2229  164.8871 C.1     1  UNL1        0.1035
     18 N         145.2048  144.1223  166.0163 N.1     1  UNL1       -0.1907
     19 C         138.3291  138.4320  162.6153 C.3     1  UNL1        0.0769
     20 C         139.2287  137.8891  163.6859 C.3     1  UNL1        0.0433
     21 C         139.2495  138.5276  165.0431 C.ar    1  UNL1       -0.0249
     22 C         138.0811  138.3603  165.9687 C.ar    1  UNL1       -0.0043
     23 C         138.1019  138.9988  167.3258 C.ar    1  UNL1        0.0059
     24 C         139.2912  139.8046  167.7574 C.ar    1  UNL1        0.0748
     25 C         140.4597  139.9719  166.8318 C.ar    1  UNL1        0.0233
     26 C         140.4389  139.3334  165.4747 C.ar    1  UNL1       -0.0260
     27 C         141.6073  139.5007  164.5490 C.3     1  UNL1        0.0305
     28 C         141.4853  140.8166  167.5280 C.3     1  UNL1        0.2352
     29 O         140.9506  141.1714  168.8838 O.3     1  UNL1       -0.4404
     30 C         139.5946  140.5459  169.0256 C.2     1  UNL1        0.3413
     31 O         138.6993  140.6445  170.2250 O.2     1  UNL1       -0.2449
@<TRIPOS>BOND
     1    15    16    1
     2    16     9    1
     3     9    10   ar
     4    10    11   ar
     5    11     8    1
     6     8     7    1
     7     7     1    1
     8     1     2    1
     9     2     3    1
    10     3     4    1
    11     4    19    1
    12    19    20    1
    13    20    21    1
    14    21    22   ar
    15    22    23   ar
    16    23    24   ar
    17    24    25   ar
    18    25    26   ar
    19    26    27    1
    20    25    28    1
    21    28    29    1
    22    29    30    1
    23    30    31    2
    24     4     5    1
    25     5     6    1
    26    11    12   ar
    27    12    13   ar
    28    13    14   ar
    29    14    17    1
    30    17    18    3
    31    14     9   ar
    32     6     1    1
    33    26    21   ar
    34    30    24    1
