@<TRIPOS>MOLECULE
*****
 30 33 0 0 0
SMALL
GASTEIGER

@<TRIPOS>ATOM
      1 C         139.7534  138.3319  162.5973 C.ar    1  UNL1        0.0853
      2 C         141.0500  137.5781  162.6240 C.ar    1  UNL1        0.1046
      3 N         141.9697  137.7093  163.8016 N.ar    1  UNL1       -0.2413
      4 C         141.5929  138.5943  164.9526 C.ar    1  UNL1        0.1098
      5 C         142.5126  138.7255  166.1303 C.ar    1  UNL1        0.1576
      6 F         143.8092  137.9717  166.1570 F       1  UNL1       -0.2026
      7 C         142.1358  139.6104  167.2813 C.ar    1  UNL1        0.0312
      8 C         140.8392  140.3642  167.2546 C.ar    1  UNL1        0.0039
      9 C         139.9195  140.2331  166.0770 C.ar    1  UNL1        0.0029
     10 C         140.2963  139.3480  164.9259 C.ar    1  UNL1        0.0332
     11 C         139.3766  139.2168  163.7483 C.ar    1  UNL1        0.0520
     12 C         140.4624  141.2492  168.4056 C.ar    1  UNL1        0.0193
     13 C         140.8980  142.6845  168.4221 C.ar    1  UNL1        0.0031
     14 C         140.5212  143.5695  169.5731 C.ar    1  UNL1        0.0207
     15 C         139.7087  143.0192  170.7076 C.ar    1  UNL1        0.0989
     16 N         139.2731  141.5840  170.6912 N.ar    1  UNL1       -0.2423
     17 C         139.6499  140.6989  169.5402 C.ar    1  UNL1        0.0988
     18 N         139.3784  138.3126  160.0265 N.am    1  UNL1       -0.3252
     19 C         138.8337  138.2007  161.4196 C.2     1  UNL1        0.2455
     20 O         137.3693  137.9576  161.6351 O.2     1  UNL1       -0.2703
     21 H         138.7747  138.2265  159.2536 H       1  UNL1        0.1453
     22 H         140.3395  138.4722  159.8851 H       1  UNL1        0.1453
     23 N         138.0800  139.9707  163.7217 N.pl3   1  UNL1       -0.3337
     24 H         137.2546  139.5418  164.0441 H       1  UNL1        0.1468
     25 C         138.0411  141.3778  163.2037 C.3     1  UNL1        0.0740
     26 C         137.7667  142.5153  164.1424 C.3     1  UNL1        0.0516
     27 C         137.7278  143.9224  163.6245 C.3     1  UNL1        0.1439
     28 O         137.9632  144.1923  162.1678 O.3     1  UNL1       -0.3537
     29 C         138.2376  143.0549  161.2292 C.3     1  UNL1        0.1439
     30 C         138.2765  141.6477  161.7471 C.3     1  UNL1        0.0516
@<TRIPOS>BOND
     1    18    19   am
     2    19    20    2
     3    19     1    1
     4     1     2   ar
     5     2     3   ar
     6     3     4   ar
     7     4     5   ar
     8     5     6    1
     9     5     7   ar
    10     7     8   ar
    11     8    12    1
    12    12    13   ar
    13    13    14   ar
    14    14    15   ar
    15    15    16   ar
    16    16    17   ar
    17     8     9   ar
    18     9    10   ar
    19    10    11   ar
    20    11    23    1
    21    23    25    1
    22    25    26    1
    23    26    27    1
    24    27    28    1
    25    28    29    1
    26    29    30    1
    27    11     1   ar
    28    30    25    1
    29    10     4   ar
    30    17    12   ar
    31    18    21    1
    32    18    22    1
    33    23    24    1
@<TRIPOS>MOLECULE
*****
 30 33 0 0 0
SMALL
GASTEIGER

@<TRIPOS>ATOM
      1 C         140.2686  141.8548  168.9825 C.ar    1  UNL1        0.0853
      2 C         139.3604  141.0002  169.8160 C.ar    1  UNL1        0.1046
      3 N         138.5983  139.8747  169.1814 N.ar    1  UNL1       -0.2413
      4 C         138.7445  139.6040  167.7133 C.ar    1  UNL1        0.1098
      5 C         137.9825  138.4785  167.0787 C.ar    1  UNL1        0.1576
      6 F         137.0743  137.6239  167.9122 F       1  UNL1       -0.2026
      7 C         138.1286  138.2078  165.6107 C.ar    1  UNL1        0.0312
      8 C         139.0369  139.0624  164.7771 C.ar    1  UNL1        0.0039
      9 C         139.7989  140.1879  165.4117 C.ar    1  UNL1        0.0029
     10 C         139.6527  140.4586  166.8799 C.ar    1  UNL1        0.0332
     11 C         140.4147  141.5841  167.5145 C.ar    1  UNL1        0.0520
     12 C         139.1830  138.7917  163.3090 C.ar    1  UNL1        0.0193
     13 C         138.1343  139.2715  162.3498 C.ar    1  UNL1        0.0031
     14 C         138.2805  139.0007  160.8817 C.ar    1  UNL1        0.0207
     15 C         139.4753  138.2501  160.3728 C.ar    1  UNL1        0.0989
     16 N         140.5240  137.7703  161.3320 N.ar    1  UNL1       -0.2423
     17 C         140.3778  138.0411  162.8001 C.ar    1  UNL1        0.0988
     18 N         140.2943  144.1506  170.1986 N.am    1  UNL1       -0.3252
     19 C         141.0306  142.9803  169.6171 C.2     1  UNL1        0.2455
     20 O         142.5289  142.9354  169.6703 O.2     1  UNL1       -0.2703
     21 H         140.7944  144.8892  170.6151 H       1  UNL1        0.1453
     22 H         139.3108  144.1801  170.1637 H       1  UNL1        0.1453
     23 N         141.3229  142.4387  166.6809 N.pl3   1  UNL1       -0.3337
     24 H         142.2961  142.4115  166.8274 H       1  UNL1        0.1468
     25 C         140.7484  143.3349  165.6241 C.3     1  UNL1        0.0740
     26 C         139.3757  143.9143  165.7971 C.3     1  UNL1        0.0516
     27 C         138.8012  144.8104  164.7403 C.3     1  UNL1        0.1439
     28 O         139.5994  145.1272  163.5105 O.3     1  UNL1       -0.3537
     29 C         140.9721  144.5479  163.3375 C.3     1  UNL1        0.1439
     30 C         141.5467  143.6517  164.3943 C.3     1  UNL1        0.0516
@<TRIPOS>BOND
     1    18    19   am
     2    19    20    2
     3    19     1    1
     4     1     2   ar
     5     2     3   ar
     6     3     4   ar
     7     4     5   ar
     8     5     6    1
     9     5     7   ar
    10     7     8   ar
    11     8    12    1
    12    12    13   ar
    13    13    14   ar
    14    14    15   ar
    15    15    16   ar
    16    16    17   ar
    17     8     9   ar
    18     9    10   ar
    19    10    11   ar
    20    11    23    1
    21    23    25    1
    22    25    26    1
    23    26    27    1
    24    27    28    1
    25    28    29    1
    26    29    30    1
    27    11     1   ar
    28    30    25    1
    29    10     4   ar
    30    17    12   ar
    31    18    21    1
    32    18    22    1
    33    23    24    1
@<TRIPOS>MOLECULE
*****
 30 33 0 0 0
SMALL
GASTEIGER

@<TRIPOS>ATOM
      1 C         144.0778  139.9162  162.0440 C.ar    1  UNL1        0.0853
      2 C         144.7427  141.2542  161.9113 C.ar    1  UNL1        0.1046
      3 N         144.7159  142.2219  163.0571 N.ar    1  UNL1       -0.2413
      4 C         144.0243  141.8516  164.3356 C.ar    1  UNL1        0.1098
      5 C         143.9976  142.8192  165.4814 C.ar    1  UNL1        0.1576
      6 F         144.6625  144.1573  165.3487 F       1  UNL1       -0.2026
      7 C         143.3060  142.4489  166.7598 C.ar    1  UNL1        0.0312
      8 C         142.6411  141.1109  166.8925 C.ar    1  UNL1        0.0039
      9 C         142.6678  140.1432  165.7467 C.ar    1  UNL1        0.0029
     10 C         143.3595  140.5136  164.4682 C.ar    1  UNL1        0.0332
     11 C         143.3862  139.5459  163.3224 C.ar    1  UNL1        0.0520
     12 C         141.9495  140.7405  168.1710 C.ar    1  UNL1        0.0193
     13 C         142.6669  140.8839  169.4806 C.ar    1  UNL1        0.0031
     14 C         141.9753  140.5136  170.7590 C.ar    1  UNL1        0.0207
     15 C         140.5663  139.9999  170.7280 C.ar    1  UNL1        0.0989
     16 N         139.8489  139.8565  169.4185 N.ar    1  UNL1       -0.2423
     17 C         140.5405  140.2269  168.1400 C.ar    1  UNL1        0.0988
     18 N         144.0370  139.4542  159.4876 N.am    1  UNL1       -0.3252
     19 C         144.1045  138.9485  160.8982 C.2     1  UNL1        0.2455
     20 O         144.1989  137.4751  161.1629 O.2     1  UNL1       -0.2703
     21 H         144.0545  138.8191  158.7356 H       1  UNL1        0.1453
     22 H         143.9751  140.4213  159.3139 H       1  UNL1        0.1453
     23 N         142.7213  138.2078  163.4551 N.pl3   1  UNL1       -0.3337
     24 H         143.2482  137.4208  163.7240 H       1  UNL1        0.1468
     25 C         141.2537  138.0688  163.1781 C.3     1  UNL1        0.0740
     26 C         140.7452  138.1512  161.7693 C.3     1  UNL1        0.0516
     27 C         139.2776  138.0122  161.4923 C.3     1  UNL1        0.1439
     28 O         138.3184  137.7909  162.6241 O.3     1  UNL1       -0.3537
     29 C         138.8268  137.7085  164.0328 C.3     1  UNL1        0.1439
     30 C         140.2945  137.8475  164.3099 C.3     1  UNL1        0.0516
@<TRIPOS>BOND
     1    18    19   am
     2    19    20    2
     3    19     1    1
     4     1     2   ar
     5     2     3   ar
     6     3     4   ar
     7     4     5   ar
     8     5     6    1
     9     5     7   ar
    10     7     8   ar
    11     8    12    1
    12    12    13   ar
    13    13    14   ar
    14    14    15   ar
    15    15    16   ar
    16    16    17   ar
    17     8     9   ar
    18     9    10   ar
    19    10    11   ar
    20    11    23    1
    21    23    25    1
    22    25    26    1
    23    26    27    1
    24    27    28    1
    25    28    29    1
    26    29    30    1
    27    11     1   ar
    28    30    25    1
    29    10     4   ar
    30    17    12   ar
    31    18    21    1
    32    18    22    1
    33    23    24    1
@<TRIPOS>MOLECULE
*****
 30 33 0 0 0
SMALL
GASTEIGER

@<TRIPOS>ATOM
      1 C         142.6412  138.7860  162.7093 C.ar    1  UNL1        0.0853
      2 C         141.5899  137.7450  162.4622 C.ar    1  UNL1        0.1046
      3 N         140.4405  137.5990  163.4148 N.ar    1  UNL1       -0.2413
      4 C         140.3423  138.4939  164.6146 C.ar    1  UNL1        0.1098
      5 C         139.1929  138.3479  165.5672 C.ar    1  UNL1        0.1576
      6 F         138.1416  137.3069  165.3201 F       1  UNL1       -0.2026
      7 C         139.0948  139.2428  166.7669 C.ar    1  UNL1        0.0312
      8 C         140.1461  140.2838  167.0141 C.ar    1  UNL1        0.0039
      9 C         141.2955  140.4299  166.0614 C.ar    1  UNL1        0.0029
     10 C         141.3936  139.5349  164.8617 C.ar    1  UNL1        0.0332
     11 C         142.5431  139.6809  163.9090 C.ar    1  UNL1        0.0520
     12 C         140.0480  141.1788  168.2138 C.ar    1  UNL1        0.0193
     13 C         140.5957  142.5741  168.1555 C.ar    1  UNL1        0.0031
     14 C         140.4975  143.4690  169.3553 C.ar    1  UNL1        0.0207
     15 C         139.8518  142.9687  170.6133 C.ar    1  UNL1        0.0989
     16 N         139.3041  141.5735  170.6716 N.ar    1  UNL1       -0.2423
     17 C         139.4022  140.6785  169.4719 C.ar    1  UNL1        0.0988
     18 N         144.6593  137.7501  161.4426 N.am    1  UNL1       -0.3252
     19 C         143.7906  138.9320  161.7567 C.2     1  UNL1        0.2455
     20 O         144.0714  140.2599  161.1181 O.2     1  UNL1       -0.2703
     21 H         145.4137  137.8460  160.8174 H       1  UNL1        0.1453
     22 H         144.4750  136.8786  161.8618 H       1  UNL1        0.1453
     23 N         143.5944  140.7219  164.1562 N.pl3   1  UNL1       -0.3337
     24 H         144.4775  140.4574  164.5018 H       1  UNL1        0.1468
     25 C         143.3003  142.1660  163.8768 C.3     1  UNL1        0.0740
     26 C         142.1666  142.5383  162.9677 C.3     1  UNL1        0.0516
     27 C         141.8725  143.9823  162.6883 C.3     1  UNL1        0.1439
     28 O         142.7119  145.0542  163.3178 O.3     1  UNL1       -0.3537
     29 C         143.8456  144.6820  164.2268 C.3     1  UNL1        0.1439
     30 C         144.1397  143.2379  164.5063 C.3     1  UNL1        0.0516
@<TRIPOS>BOND
     1    18    19   am
     2    19    20    2
     3    19     1    1
     4     1     2   ar
     5     2     3   ar
     6     3     4   ar
     7     4     5   ar
     8     5     6    1
     9     5     7   ar
    10     7     8   ar
    11     8    12    1
    12    12    13   ar
    13    13    14   ar
    14    14    15   ar
    15    15    16   ar
    16    16    17   ar
    17     8     9   ar
    18     9    10   ar
    19    10    11   ar
    20    11    23    1
    21    23    25    1
    22    25    26    1
    23    26    27    1
    24    27    28    1
    25    28    29    1
    26    29    30    1
    27    11     1   ar
    28    30    25    1
    29    10     4   ar
    30    17    12   ar
    31    18    21    1
    32    18    22    1
    33    23    24    1
@<TRIPOS>MOLECULE
*****
 30 33 0 0 0
SMALL
GASTEIGER

@<TRIPOS>ATOM
      1 C         138.6998  139.5512  162.7564 C.ar    1  UNL1        0.0853
      2 C         137.8471  140.6816  162.2614 C.ar    1  UNL1        0.1046
      3 N         137.8230  141.9842  163.0048 N.ar    1  UNL1       -0.2413
      4 C         138.6516  142.1564  164.2432 C.ar    1  UNL1        0.1098
      5 C         138.6275  143.4591  164.9866 C.ar    1  UNL1        0.1576
      6 F         137.7748  144.5894  164.4916 F       1  UNL1       -0.2026
      7 C         139.4561  143.6313  166.2250 C.ar    1  UNL1        0.0312
      8 C         140.3089  142.5009  166.7201 C.ar    1  UNL1        0.0039
      9 C         140.3330  141.1983  165.9767 C.ar    1  UNL1        0.0029
     10 C         139.5043  141.0261  164.7382 C.ar    1  UNL1        0.0332
     11 C         139.5284  139.7234  163.9948 C.ar    1  UNL1        0.0520
     12 C         141.1375  142.6731  167.9585 C.ar    1  UNL1        0.0193
     13 C         142.5518  142.1741  167.9901 C.ar    1  UNL1        0.0031
     14 C         143.3804  142.3463  169.2285 C.ar    1  UNL1        0.0207
     15 C         142.7948  143.0176  170.4353 C.ar    1  UNL1        0.0989
     16 N         141.3807  143.5166  170.4038 N.ar    1  UNL1       -0.2423
     17 C         140.5519  143.3444  169.1653 C.ar    1  UNL1        0.0988
     18 N         137.4371  137.5805  161.6288 N.am    1  UNL1       -0.3252
     19 C         138.7238  138.2486  162.0131 C.2     1  UNL1        0.2455
     20 O         140.0347  137.6141  161.6540 O.2     1  UNL1       -0.2703
     21 H         137.4529  136.7255  161.1409 H       1  UNL1        0.1453
     22 H         136.5767  137.9969  161.8645 H       1  UNL1        0.1453
     23 N         140.3811  138.5930  164.4899 N.pl3   1  UNL1       -0.3337
     24 H         139.9615  137.7540  164.7886 H       1  UNL1        0.1468
     25 C         141.8733  138.7409  164.5299 C.3     1  UNL1        0.0740
     26 C         142.6251  138.4218  165.7881 C.3     1  UNL1        0.0516
     27 C         144.1173  138.5698  165.8281 C.3     1  UNL1        0.1439
     28 O         144.8576  139.0368  164.6100 O.3     1  UNL1       -0.3537
     29 C         144.1058  139.3559  163.3519 C.3     1  UNL1        0.1439
     30 C         142.6136  139.2080  163.3118 C.3     1  UNL1        0.0516
@<TRIPOS>BOND
     1    18    19   am
     2    19    20    2
     3    19     1    1
     4     1     2   ar
     5     2     3   ar
     6     3     4   ar
     7     4     5   ar
     8     5     6    1
     9     5     7   ar
    10     7     8   ar
    11     8    12    1
    12    12    13   ar
    13    13    14   ar
    14    14    15   ar
    15    15    16   ar
    16    16    17   ar
    17     8     9   ar
    18     9    10   ar
    19    10    11   ar
    20    11    23    1
    21    23    25    1
    22    25    26    1
    23    26    27    1
    24    27    28    1
    25    28    29    1
    26    29    30    1
    27    11     1   ar
    28    30    25    1
    29    10     4   ar
    30    17    12   ar
    31    18    21    1
    32    18    22    1
    33    23    24    1
@<TRIPOS>MOLECULE
*****
 30 33 0 0 0
SMALL
GASTEIGER

@<TRIPOS>ATOM
      1 C         141.8384  140.9762  168.6694 C.ar    1  UNL1        0.0853
      2 C         140.8297  140.0775  169.3210 C.ar    1  UNL1        0.1046
      3 N         139.6265  139.6184  168.5519 N.ar    1  UNL1       -0.2413
      4 C         139.4319  140.0582  167.1311 C.ar    1  UNL1        0.1098
      5 C         138.2287  139.5992  166.3620 C.ar    1  UNL1        0.1576
      6 F         137.2200  138.7004  167.0137 F       1  UNL1       -0.2026
      7 C         138.0342  140.0389  164.9412 C.ar    1  UNL1        0.0312
      8 C         139.0429  140.9378  164.2894 C.ar    1  UNL1        0.0039
      9 C         140.2461  141.3968  165.0586 C.ar    1  UNL1        0.0029
     10 C         140.4406  140.9570  166.4794 C.ar    1  UNL1        0.0332
     11 C         141.6438  141.4160  167.2486 C.ar    1  UNL1        0.0520
     12 C         138.8483  141.3775  162.8686 C.ar    1  UNL1        0.0193
     13 C         139.4827  140.6044  161.7506 C.ar    1  UNL1        0.0031
     14 C         139.2882  141.0441  160.3298 C.ar    1  UNL1        0.0207
     15 C         138.4592  142.2570  160.0269 C.ar    1  UNL1        0.0989
     16 N         137.8248  143.0301  161.1448 N.ar    1  UNL1       -0.2423
     17 C         138.0194  142.5904  162.5657 C.ar    1  UNL1        0.0988
     18 N         143.6354  140.5548  170.4977 N.am    1  UNL1       -0.3252
     19 C         143.0416  141.4353  169.4385 C.2     1  UNL1        0.2455
     20 O         143.6510  142.7748  169.1484 O.2     1  UNL1       -0.2703
     21 H         144.4251  140.8561  171.0025 H       1  UNL1        0.1453
     22 H         143.2354  139.6756  170.6882 H       1  UNL1        0.1453
     23 N         142.6525  142.3148  166.5968 N.pl3   1  UNL1       -0.3337
     24 H         142.6808  143.2716  166.8272 H       1  UNL1        0.1468
     25 C         143.6180  141.7559  165.5942 C.3     1  UNL1        0.0740
     26 C         143.7206  140.2723  165.3979 C.3     1  UNL1        0.0516
     27 C         144.6861  139.7134  164.3952 C.3     1  UNL1        0.1439
     28 O         145.5490  140.6381  163.5888 O.3     1  UNL1       -0.3537
     29 C         145.4465  142.1216  163.7850 C.3     1  UNL1        0.1439
     30 C         144.4809  142.6806  164.7877 C.3     1  UNL1        0.0516
@<TRIPOS>BOND
     1    18    19   am
     2    19    20    2
     3    19     1    1
     4     1     2   ar
     5     2     3   ar
     6     3     4   ar
     7     4     5   ar
     8     5     6    1
     9     5     7   ar
    10     7     8   ar
    11     8    12    1
    12    12    13   ar
    13    13    14   ar
    14    14    15   ar
    15    15    16   ar
    16    16    17   ar
    17     8     9   ar
    18     9    10   ar
    19    10    11   ar
    20    11    23    1
    21    23    25    1
    22    25    26    1
    23    26    27    1
    24    27    28    1
    25    28    29    1
    26    29    30    1
    27    11     1   ar
    28    30    25    1
    29    10     4   ar
    30    17    12   ar
    31    18    21    1
    32    18    22    1
    33    23    24    1
@<TRIPOS>MOLECULE
*****
 30 33 0 0 0
SMALL
GASTEIGER

@<TRIPOS>ATOM
      1 C         138.7752  141.0861  161.8383 C.ar    1  UNL1        0.0853
      2 C         138.3867  139.6393  161.7614 C.ar    1  UNL1        0.1046
      3 N         138.3883  138.7954  163.0016 N.ar    1  UNL1       -0.2413
      4 C         138.7783  139.3983  164.3185 C.ar    1  UNL1        0.1098
      5 C         138.7799  138.5545  165.5586 C.ar    1  UNL1        0.1576
      6 F         138.3914  137.1077  165.4818 F       1  UNL1       -0.2026
      7 C         139.1699  139.1573  166.8755 C.ar    1  UNL1        0.0312
      8 C         139.5584  140.6042  166.9524 C.ar    1  UNL1        0.0039
      9 C         139.5568  141.4480  165.7123 C.ar    1  UNL1        0.0029
     10 C         139.1668  140.8451  164.3953 C.ar    1  UNL1        0.0332
     11 C         139.1652  141.6890  163.1552 C.ar    1  UNL1        0.0520
     12 C         139.9484  141.2071  168.2693 C.ar    1  UNL1        0.0193
     13 C         140.5747  142.5694  168.3145 C.ar    1  UNL1        0.0031
     14 C         140.9647  143.1722  169.6314 C.ar    1  UNL1        0.0207
     15 C         140.7285  142.4129  170.9033 C.ar    1  UNL1        0.0989
     16 N         140.1022  141.0507  170.8582 N.ar    1  UNL1       -0.2423
     17 C         139.7122  140.4477  169.5412 C.ar    1  UNL1        0.0988
     18 N         139.4513  141.4364  159.3543 N.am    1  UNL1       -0.3252
     19 C         138.7736  141.9299  160.5982 C.2     1  UNL1        0.2455
     20 O         138.0944  143.2673  160.6019 O.2     1  UNL1       -0.2703
     21 H         139.4502  141.9903  158.5404 H       1  UNL1        0.1453
     22 H         139.8971  140.5587  159.3518 H       1  UNL1        0.1453
     23 N         139.5537  143.1358  163.2321 N.pl3   1  UNL1       -0.3337
     24 H         138.8612  143.8260  163.3474 H       1  UNL1        0.1468
     25 C         140.9973  143.5310  163.1333 C.3     1  UNL1        0.0740
     26 C         141.9202  142.7785  162.2211 C.3     1  UNL1        0.0516
     27 C         143.3638  143.1737  162.1223 C.3     1  UNL1        0.1439
     28 O         143.8845  144.3214  162.9356 O.3     1  UNL1       -0.3537
     29 C         142.9617  145.0739  163.8478 C.3     1  UNL1        0.1439
     30 C         141.5180  144.6787  163.9466 C.3     1  UNL1        0.0516
@<TRIPOS>BOND
     1    18    19   am
     2    19    20    2
     3    19     1    1
     4     1     2   ar
     5     2     3   ar
     6     3     4   ar
     7     4     5   ar
     8     5     6    1
     9     5     7   ar
    10     7     8   ar
    11     8    12    1
    12    12    13   ar
    13    13    14   ar
    14    14    15   ar
    15    15    16   ar
    16    16    17   ar
    17     8     9   ar
    18     9    10   ar
    19    10    11   ar
    20    11    23    1
    21    23    25    1
    22    25    26    1
    23    26    27    1
    24    27    28    1
    25    28    29    1
    26    29    30    1
    27    11     1   ar
    28    30    25    1
    29    10     4   ar
    30    17    12   ar
    31    18    21    1
    32    18    22    1
    33    23    24    1
@<TRIPOS>MOLECULE
*****
 30 33 0 0 0
SMALL
GASTEIGER

@<TRIPOS>ATOM
      1 C         143.9997  141.6544  162.7457 C.ar    1  UNL1        0.0853
      2 C         144.4826  140.2343  162.7578 C.ar    1  UNL1        0.1046
      3 N         144.2095  139.3593  163.9451 N.ar    1  UNL1       -0.2413
      4 C         143.4535  139.9044  165.1204 C.ar    1  UNL1        0.1098
      5 C         143.1804  139.0294  166.3077 C.ar    1  UNL1        0.1576
      6 F         143.6633  137.6093  166.3198 F       1  UNL1       -0.2026
      7 C         142.4245  139.5744  167.4830 C.ar    1  UNL1        0.0312
      8 C         141.9415  140.9945  167.4710 C.ar    1  UNL1        0.0039
      9 C         142.2146  141.8695  166.2837 C.ar    1  UNL1        0.0029
     10 C         142.9706  141.3244  165.1083 C.ar    1  UNL1        0.0332
     11 C         143.2437  142.1994  163.9210 C.ar    1  UNL1        0.0520
     12 C         141.1855  141.5396  168.6463 C.ar    1  UNL1        0.0193
     13 C         141.0089  143.0210  168.8029 C.ar    1  UNL1        0.0031
     14 C         140.2529  143.5660  169.9782 C.ar    1  UNL1        0.0207
     15 C         139.6735  142.6298  170.9969 C.ar    1  UNL1        0.0989
     16 N         139.8501  141.1485  170.8403 N.ar    1  UNL1       -0.2423
     17 C         140.6061  140.6034  169.6650 C.ar    1  UNL1        0.0988
     18 N         144.2052  141.9570  160.1735 N.am    1  UNL1       -0.3252
     19 C         144.2728  142.5294  161.5583 C.2     1  UNL1        0.2455
     20 O         144.6135  143.9767  161.7558 O.2     1  UNL1       -0.2703
     21 H         144.3845  142.5313  159.3942 H       1  UNL1        0.1453
     22 H         143.9816  141.0070  160.0439 H       1  UNL1        0.1453
     23 N         142.7608  143.6195  163.9090 N.pl3   1  UNL1       -0.3337
     24 H         143.3082  144.3291  164.3165 H       1  UNL1        0.1468
     25 C         141.4439  143.9585  163.2760 C.3     1  UNL1        0.0740
     26 C         140.4138  142.8880  163.0683 C.3     1  UNL1        0.0516
     27 C         139.0969  143.2270  162.4353 C.3     1  UNL1        0.1439
     28 O         138.8099  144.6365  162.0100 O.3     1  UNL1       -0.3537
     29 C         139.8399  145.7070  162.2176 C.3     1  UNL1        0.1439
     30 C         141.1569  145.3680  162.8506 C.3     1  UNL1        0.0516
@<TRIPOS>BOND
     1    18    19   am
     2    19    20    2
     3    19     1    1
     4     1     2   ar
     5     2     3   ar
     6     3     4   ar
     7     4     5   ar
     8     5     6    1
     9     5     7   ar
    10     7     8   ar
    11     8    12    1
    12    12    13   ar
    13    13    14   ar
    14    14    15   ar
    15    15    16   ar
    16    16    17   ar
    17     8     9   ar
    18     9    10   ar
    19    10    11   ar
    20    11    23    1
    21    23    25    1
    22    25    26    1
    23    26    27    1
    24    27    28    1
    25    28    29    1
    26    29    30    1
    27    11     1   ar
    28    30    25    1
    29    10     4   ar
    30    17    12   ar
    31    18    21    1
    32    18    22    1
    33    23    24    1
@<TRIPOS>MOLECULE
*****
 30 33 0 0 0
SMALL
GASTEIGER

@<TRIPOS>ATOM
      1 C         140.6574  141.5065  168.0983 C.ar    1  UNL1        0.0853
      2 C         139.5467  140.6319  168.5994 C.ar    1  UNL1        0.1046
      3 N         139.0522  139.4921  167.7590 N.ar    1  UNL1       -0.2413
      4 C         139.6684  139.2270  166.4174 C.ar    1  UNL1        0.1098
      5 C         139.1739  138.0872  165.5769 C.ar    1  UNL1        0.1576
      6 F         138.0632  137.2126  166.0780 F       1  UNL1       -0.2026
      7 C         139.7902  137.8221  164.2354 C.ar    1  UNL1        0.0312
      8 C         140.9011  138.6967  163.7342 C.ar    1  UNL1        0.0039
      9 C         141.3956  139.8365  164.5747 C.ar    1  UNL1        0.0029
     10 C         140.7792  140.1016  165.9163 C.ar    1  UNL1        0.0332
     11 C         141.2737  141.2414  166.7568 C.ar    1  UNL1        0.0520
     12 C         141.5173  138.4316  162.3926 C.ar    1  UNL1        0.0193
     13 C         142.9764  138.0986  162.2901 C.ar    1  UNL1        0.0031
     14 C         143.5926  137.8335  160.9485 C.ar    1  UNL1        0.0207
     15 C         142.7500  137.9013  159.7094 C.ar    1  UNL1        0.0989
     16 N         141.2910  138.2342  159.8119 N.ar    1  UNL1       -0.2423
     17 C         140.6746  138.4993  161.1536 C.ar    1  UNL1        0.0988
     18 N         140.1841  143.6622  169.4691 N.am    1  UNL1       -0.3252
     19 C         141.1519  142.6463  168.9388 C.2     1  UNL1        0.2455
     20 O         142.6143  142.7702  169.2490 O.2     1  UNL1       -0.2703
     21 H         140.5087  144.4102  170.0207 H       1  UNL1        0.1453
     22 H         139.2243  143.5809  169.2656 H       1  UNL1        0.1453
     23 N         142.3846  142.1160  166.2556 N.pl3   1  UNL1       -0.3337
     24 H         143.3043  141.9768  166.5780 H       1  UNL1        0.1468
     25 C         142.0940  143.2027  165.2633 C.3     1  UNL1        0.0740
     26 C         143.2166  143.8420  164.5010 C.3     1  UNL1        0.0516
     27 C         142.9261  144.9287  163.5087 C.3     1  UNL1        0.1439
     28 O         141.5130  145.3761  163.2787 O.3     1  UNL1       -0.3537
     29 C         140.3904  144.7369  164.0410 C.3     1  UNL1        0.1439
     30 C         140.6809  143.6501  165.0333 C.3     1  UNL1        0.0516
@<TRIPOS>BOND
     1    18    19   am
     2    19    20    2
     3    19     1    1
     4     1     2   ar
     5     2     3   ar
     6     3     4   ar
     7     4     5   ar
     8     5     6    1
     9     5     7   ar
    10     7     8   ar
    11     8    12    1
    12    12    13   ar
    13    13    14   ar
    14    14    15   ar
    15    15    16   ar
    16    16    17   ar
    17     8     9   ar
    18     9    10   ar
    19    10    11   ar
    20    11    23    1
    21    23    25    1
    22    25    26    1
    23    26    27    1
    24    27    28    1
    25    28    29    1
    26    29    30    1
    27    11     1   ar
    28    30    25    1
    29    10     4   ar
    30    17    12   ar
    31    18    21    1
    32    18    22    1
    33    23    24    1
