@<TRIPOS>MOLECULE
*****
 45 49 0 0 0
SMALL
GASTEIGER

@<TRIPOS>ATOM
      1 C         142.4069  142.8471  159.7796 C.ar    1  UNL1        0.0375
      2 C         142.0407  142.5442  158.3569 C.ar    1  UNL1        0.1031
      3 N         143.1053  142.1526  157.3755 N.ar    1  UNL1       -0.2121
      4 C         144.5363  142.0640  157.8168 C.ar    1  UNL1        0.2200
      5 N         144.9025  142.3669  159.2395 N.ar    1  UNL1       -0.2163
      6 C         143.8377  142.7584  160.2210 C.ar    1  UNL1        0.0836
      7 C         140.7208  144.6019  160.6894 C.ar    1  UNL1        0.1387
      8 C         139.6561  144.9934  161.6707 C.ar    1  UNL1        0.0369
      9 C         139.2128  144.0216  162.7238 C.ar    1  UNL1        0.0031
     10 C         139.8341  142.6582  162.7955 C.ar    1  UNL1       -0.0001
     11 C         140.8988  142.2667  161.8141 C.ar    1  UNL1        0.0031
     12 C         141.3422  143.2386  160.7610 C.ar    1  UNL1        0.0367
     13 C         139.3908  141.6863  163.8485 C.ar    1  UNL1       -0.0039
     14 C         139.8530  141.8535  165.2657 C.ar    1  UNL1       -0.0003
     15 C         139.4096  140.8816  166.3188 C.ar    1  UNL1        0.0011
     16 C         138.5041  139.7426  165.9546 C.ar    1  UNL1        0.0137
     17 C         138.0419  139.5755  164.5375 C.ar    1  UNL1       -0.0031
     18 C         138.4853  140.5473  163.4844 C.ar    1  UNL1       -0.0218
     19 C         138.0231  140.3801  162.0672 C.3     1  UNL1        0.0310
     20 C         138.0608  138.7707  167.0077 C.2     1  UNL1        0.0729
     21 O         138.1655  139.1373  168.4584 O.co2   1  UNL1       -0.5446
     22 O         137.5128  137.4323  166.6100 O.co2   1  UNL1       -0.5446
     23 C         140.3556  145.7437  158.3844 C.3     1  UNL1        0.2525
     24 O         141.1642  145.5738  159.6363 O.3     1  UNL1       -0.4714
     25 N         145.6009  141.6725  156.8354 N.pl3   1  UNL1       -0.2747
     26 C         145.3860  140.5013  155.9231 C.3     1  UNL1        0.1151
     27 C         146.8805  142.4521  156.7663 C.3     1  UNL1        0.1151
     28 C         144.2039  143.0613  161.6437 C.3     1  UNL1        0.1428
     29 N         143.9973  142.0248  162.7082 N.am    1  UNL1       -0.2380
     30 C         144.1801  140.5450  162.5451 C.2     1  UNL1        0.4055
     31 O         144.6015  139.8417  161.2891 O.2     1  UNL1       -0.2262
     32 O         143.8674  139.8918  163.8589 O.3     1  UNL1       -0.4304
     33 C         143.4914  140.9681  164.8337 C.3     1  UNL1        0.2280
     34 C         143.5717  142.2863  164.1226 C.3     1  UNL1        0.1249
     35 C         143.2780  143.6301  164.7208 C.3     1  UNL1        0.0259
     36 C         143.1033  140.7622  166.2679 C.ar    1  UNL1        0.1003
     37 C         143.0780  139.3787  166.8469 C.ar    1  UNL1        0.0184
     38 C         142.6899  139.1728  168.2811 C.ar    1  UNL1        0.0028
     39 C         142.3270  140.3504  169.1363 C.ar    1  UNL1        0.0231
     40 C         142.3522  141.7341  168.5574 C.ar    1  UNL1        0.1523
     41 N         142.7404  141.9398  167.1231 N.ar    1  UNL1       -0.2421
     42 C         141.9894  142.9117  169.4126 C.3     1  UNL1        0.4348
     43 F         141.6265  144.0893  170.2679 F       1  UNL1       -0.1644
     44 F         140.8376  143.2182  168.5019 F       1  UNL1       -0.1644
     45 F         143.1412  142.6052  170.3234 F       1  UNL1       -0.1644
@<TRIPOS>UNITY_ATOM_ATTR
21 1
charge -1
@<TRIPOS>BOND
     1    23    24    1
     2    24     7    1
     3     7     8   ar
     4     8     9   ar
     5     9    10   ar
     6    10    13    1
     7    13    14   ar
     8    14    15   ar
     9    15    16   ar
    10    16    20    1
    11    20    21   ar
    12    20    22   ar
    13    16    17   ar
    14    17    18   ar
    15    18    19    1
    16    10    11   ar
    17    11    12   ar
    18    12     1    1
    19     1     2   ar
    20     2     3   ar
    21     3     4   ar
    22     4    25    1
    23    25    26    1
    24    25    27    1
    25     4     5   ar
    26     5     6   ar
    27     6    28    1
    28    28    29    1
    29    29    30   am
    30    30    31    2
    31    30    32    1
    32    32    33    1
    33    33    36    1
    34    36    37   ar
    35    37    38   ar
    36    38    39   ar
    37    39    40   ar
    38    40    42    1
    39    42    43    1
    40    42    44    1
    41    42    45    1
    42    40    41   ar
    43    33    34    1
    44    34    35    1
    45    12     7   ar
    46     6     1   ar
    47    34    29    1
    48    18    13   ar
    49    41    36   ar
@<TRIPOS>MOLECULE
*****
 45 49 0 0 0
SMALL
GASTEIGER

@<TRIPOS>ATOM
      1 C         142.8260  141.6806  159.4042 C.ar    1  UNL1        0.0375
      2 C         143.8737  142.4966  158.7068 C.ar    1  UNL1        0.1031
      3 N         143.4907  143.3918  157.5658 N.ar    1  UNL1       -0.2121
      4 C         142.0599  143.4709  157.1221 C.ar    1  UNL1        0.2200
      5 N         141.0122  142.6549  157.8196 N.ar    1  UNL1       -0.2163
      6 C         141.3953  141.7597  158.9606 C.ar    1  UNL1        0.0836
      7 C         143.6784  139.3864  160.2762 C.ar    1  UNL1        0.1387
      8 C         144.0614  138.4914  161.4173 C.ar    1  UNL1        0.0369
      9 C         143.9751  138.9953  162.8274 C.ar    1  UNL1        0.0031
     10 C         143.5057  140.3942  163.0966 C.ar    1  UNL1       -0.0001
     11 C         143.1227  141.2893  161.9555 C.ar    1  UNL1        0.0031
     12 C         143.2090  140.7854  160.5453 C.ar    1  UNL1        0.0367
     13 C         143.4194  140.8981  164.5068 C.ar    1  UNL1       -0.0039
     14 C         143.8009  142.3141  164.8219 C.ar    1  UNL1       -0.0003
     15 C         143.7146  142.8180  166.2321 C.ar    1  UNL1        0.0011
     16 C         143.2467  141.9059  167.3271 C.ar    1  UNL1        0.0137
     17 C         142.8652  140.4900  167.0120 C.ar    1  UNL1       -0.0031
     18 C         142.9515  139.9861  165.6018 C.ar    1  UNL1       -0.0218
     19 C         142.5700  138.5700  165.2867 C.3     1  UNL1        0.0310
     20 C         143.1604  142.4098  168.7373 C.2     1  UNL1        0.0729
     21 O         141.8221  142.5737  169.3946 O.co2   1  UNL1       -0.5446
     22 O         144.4124  142.7499  169.4902 O.co2   1  UNL1       -0.5446
     23 C         142.6465  138.0637  158.2924 C.3     1  UNL1        0.2525
     24 O         143.7647  138.8825  158.8660 O.3     1  UNL1       -0.4714
     25 N         141.6770  144.3661  155.9811 N.pl3   1  UNL1       -0.2747
     26 C         141.9848  143.9573  154.5711 C.3     1  UNL1        0.1151
     27 C         140.9861  145.6700  156.2501 C.3     1  UNL1        0.1151
     28 C         140.3476  140.9437  159.6581 C.3     1  UNL1        0.1428
     29 N         139.8995  141.3207  161.0391 N.am    1  UNL1       -0.2380
     30 C         139.3603  142.6566  161.4570 C.2     1  UNL1        0.4055
     31 O         139.1745  143.8500  160.5675 O.2     1  UNL1       -0.2262
     32 O         139.0395  142.5896  162.9209 O.3     1  UNL1       -0.4304
     33 C         139.3804  141.2122  163.4075 C.3     1  UNL1        0.2280
     34 C         139.9119  140.4281  162.2445 C.3     1  UNL1        0.1249
     35 C         140.3746  139.0017  162.2805 C.3     1  UNL1        0.0259
     36 C         139.2183  140.7077  164.8107 C.ar    1  UNL1        0.1003
     37 C         139.7112  141.5293  165.9648 C.ar    1  UNL1        0.0184
     38 C         139.5491  141.0248  167.3680 C.ar    1  UNL1        0.0028
     39 C         138.8940  139.6986  167.6172 C.ar    1  UNL1        0.0231
     40 C         138.4011  138.8769  166.4631 C.ar    1  UNL1        0.1523
     41 N         138.5632  139.3815  165.0599 N.ar    1  UNL1       -0.2421
     42 C         137.7460  137.5507  166.7123 C.3     1  UNL1        0.4348
     43 F         137.0910  136.2245  166.9615 F       1  UNL1       -0.1644
     44 F         136.9350  138.1590  167.8179 F       1  UNL1       -0.1644
     45 F         138.5570  136.9424  165.6068 F       1  UNL1       -0.1644
@<TRIPOS>UNITY_ATOM_ATTR
21 1
charge -1
@<TRIPOS>BOND
     1    23    24    1
     2    24     7    1
     3     7     8   ar
     4     8     9   ar
     5     9    10   ar
     6    10    13    1
     7    13    14   ar
     8    14    15   ar
     9    15    16   ar
    10    16    20    1
    11    20    21   ar
    12    20    22   ar
    13    16    17   ar
    14    17    18   ar
    15    18    19    1
    16    10    11   ar
    17    11    12   ar
    18    12     1    1
    19     1     2   ar
    20     2     3   ar
    21     3     4   ar
    22     4    25    1
    23    25    26    1
    24    25    27    1
    25     4     5   ar
    26     5     6   ar
    27     6    28    1
    28    28    29    1
    29    29    30   am
    30    30    31    2
    31    30    32    1
    32    32    33    1
    33    33    36    1
    34    36    37   ar
    35    37    38   ar
    36    38    39   ar
    37    39    40   ar
    38    40    42    1
    39    42    43    1
    40    42    44    1
    41    42    45    1
    42    40    41   ar
    43    33    34    1
    44    34    35    1
    45    12     7   ar
    46     6     1   ar
    47    34    29    1
    48    18    13   ar
    49    41    36   ar
@<TRIPOS>MOLECULE
*****
 45 49 0 0 0
SMALL
GASTEIGER

@<TRIPOS>ATOM
      1 C         139.7177  139.9744  161.7285 C.ar    1  UNL1        0.0375
      2 C         138.2871  139.6381  161.4280 C.ar    1  UNL1        0.1031
      3 N         137.6450  140.1470  160.1716 N.ar    1  UNL1       -0.2121
      4 C         138.4336  140.9922  159.2155 C.ar    1  UNL1        0.2200
      5 N         139.8642  141.3284  159.5160 N.ar    1  UNL1       -0.2163
      6 C         140.5063  140.8195  160.7725 C.ar    1  UNL1        0.0836
      7 C         141.1680  138.2021  162.9557 C.ar    1  UNL1        0.1387
      8 C         141.8100  137.6933  164.2122 C.ar    1  UNL1        0.0369
      9 C         141.6438  138.4477  165.4980 C.ar    1  UNL1        0.0031
     10 C         140.8357  139.7110  165.5273 C.ar    1  UNL1       -0.0001
     11 C         140.1937  140.2199  164.2708 C.ar    1  UNL1        0.0031
     12 C         140.3598  139.4654  162.9850 C.ar    1  UNL1        0.0367
     13 C         140.6695  140.4654  166.8131 C.ar    1  UNL1       -0.0039
     14 C         139.6377  140.0294  167.8106 C.ar    1  UNL1       -0.0003
     15 C         139.4715  140.7838  169.0963 C.ar    1  UNL1        0.0011
     16 C         140.3373  141.9743  169.3846 C.ar    1  UNL1        0.0137
     17 C         141.3692  142.4104  168.3872 C.ar    1  UNL1       -0.0031
     18 C         141.5353  141.6559  167.1014 C.ar    1  UNL1       -0.0218
     19 C         142.5672  142.0921  166.1039 C.3     1  UNL1        0.0310
     20 C         140.1711  142.7287  170.6704 C.2     1  UNL1        0.0729
     21 O         139.6068  144.1184  170.6571 O.co2   1  UNL1       -0.5446
     22 O         140.5694  142.0935  171.9696 O.co2   1  UNL1       -0.5446
     23 C         142.6308  137.5210  160.9195 C.3     1  UNL1        0.2525
     24 O         141.3341  137.4477  161.6699 O.3     1  UNL1       -0.4714
     25 N         137.7915  141.5011  157.9590 N.pl3   1  UNL1       -0.2747
     26 C         136.7993  140.6483  157.2253 C.3     1  UNL1        0.1151
     27 C         138.1416  142.8627  157.4363 C.3     1  UNL1        0.1151
     28 C         141.9369  141.1558  161.0730 C.3     1  UNL1        0.1428
     29 N         142.7672  141.8791  160.0544 N.am    1  UNL1       -0.2380
     30 C         143.0956  143.3427  160.0632 C.2     1  UNL1        0.4055
     31 O         142.6516  144.3399  161.0920 O.2     1  UNL1       -0.2262
     32 O         143.9462  143.6340  158.8624 O.3     1  UNL1       -0.4304
     33 C         144.1434  142.3504  158.1116 C.3     1  UNL1        0.2280
     34 C         143.4147  141.2659  158.8483 C.3     1  UNL1        0.1249
     35 C         143.3456  139.8217  158.4491 C.3     1  UNL1        0.0259
     36 C         144.9309  142.1812  156.8464 C.ar    1  UNL1        0.1003
     37 C         144.2197  142.0420  155.5331 C.ar    1  UNL1        0.0184
     38 C         145.0072  141.8727  154.2678 C.ar    1  UNL1        0.0028
     39 C         146.5062  141.8427  154.3157 C.ar    1  UNL1        0.0231
     40 C         147.2176  141.9819  155.6290 C.ar    1  UNL1        0.1523
     41 N         146.4299  142.1511  156.8943 N.ar    1  UNL1       -0.2421
     42 C         148.7165  141.9518  155.6769 C.3     1  UNL1        0.4348
     43 F         150.2154  141.9217  155.7248 F       1  UNL1       -0.1644
     44 F         148.7511  141.4339  154.2696 F       1  UNL1       -0.1644
     45 F         148.6819  142.4696  157.0843 F       1  UNL1       -0.1644
@<TRIPOS>UNITY_ATOM_ATTR
21 1
charge -1
@<TRIPOS>BOND
     1    23    24    1
     2    24     7    1
     3     7     8   ar
     4     8     9   ar
     5     9    10   ar
     6    10    13    1
     7    13    14   ar
     8    14    15   ar
     9    15    16   ar
    10    16    20    1
    11    20    21   ar
    12    20    22   ar
    13    16    17   ar
    14    17    18   ar
    15    18    19    1
    16    10    11   ar
    17    11    12   ar
    18    12     1    1
    19     1     2   ar
    20     2     3   ar
    21     3     4   ar
    22     4    25    1
    23    25    26    1
    24    25    27    1
    25     4     5   ar
    26     5     6   ar
    27     6    28    1
    28    28    29    1
    29    29    30   am
    30    30    31    2
    31    30    32    1
    32    32    33    1
    33    33    36    1
    34    36    37   ar
    35    37    38   ar
    36    38    39   ar
    37    39    40   ar
    38    40    42    1
    39    42    43    1
    40    42    44    1
    41    42    45    1
    42    40    41   ar
    43    33    34    1
    44    34    35    1
    45    12     7   ar
    46     6     1   ar
    47    34    29    1
    48    18    13   ar
    49    41    36   ar
@<TRIPOS>MOLECULE
*****
 45 49 0 0 0
SMALL
GASTEIGER

@<TRIPOS>ATOM
      1 C         139.4695  141.2015  158.1577 C.ar    1  UNL1        0.0375
      2 C         138.1598  140.8917  157.4953 C.ar    1  UNL1        0.1031
      3 N         137.5582  141.8689  156.5295 N.ar    1  UNL1       -0.2121
      4 C         138.2662  143.1560  156.2258 C.ar    1  UNL1        0.2200
      5 N         139.5759  143.4658  156.8882 N.ar    1  UNL1       -0.2163
      6 C         140.1776  142.4885  157.8541 C.ar    1  UNL1        0.0836
      7 C         141.2206  139.3597  158.6977 C.ar    1  UNL1        0.1387
      8 C         141.8222  138.3824  159.6637 C.ar    1  UNL1        0.0369
      9 C         141.2743  138.2697  161.0555 C.ar    1  UNL1        0.0031
     10 C         140.1249  139.1341  161.4814 C.ar    1  UNL1       -0.0001
     11 C         139.5233  140.1114  160.5154 C.ar    1  UNL1        0.0031
     12 C         140.0712  140.2242  159.1236 C.ar    1  UNL1        0.0367
     13 C         139.5770  139.0214  162.8732 C.ar    1  UNL1       -0.0039
     14 C         139.6098  137.7029  163.5875 C.ar    1  UNL1       -0.0003
     15 C         139.0619  137.5901  164.9793 C.ar    1  UNL1        0.0011
     16 C         138.4813  138.7958  165.6568 C.ar    1  UNL1        0.0137
     17 C         138.4486  140.1144  164.9424 C.ar    1  UNL1       -0.0031
     18 C         138.9964  140.2271  163.5506 C.ar    1  UNL1       -0.0218
     19 C         138.9636  141.5458  162.8362 C.3     1  UNL1        0.0310
     20 C         137.9334  138.6831  167.0486 C.2     1  UNL1        0.0729
     21 O         136.7416  137.8129  167.3173 O.co2   1  UNL1       -0.5446
     22 O         138.5774  139.4405  168.1717 O.co2   1  UNL1       -0.5446
     23 C         143.2190  139.7904  157.0944 C.3     1  UNL1        0.2525
     24 O         141.7685  139.4724  157.3059 O.3     1  UNL1       -0.4714
     25 N         137.6646  144.1332  155.2600 N.pl3   1  UNL1       -0.2747
     26 C         138.0977  145.5692  155.2783 C.3     1  UNL1        0.1151
     27 C         136.6298  143.6745  154.2757 C.3     1  UNL1        0.1151
     28 C         141.4873  142.7983  158.5165 C.3     1  UNL1        0.1428
     29 N         141.5157  143.2567  159.9445 N.am    1  UNL1       -0.2380
     30 C         140.7511  144.4147  160.5140 C.2     1  UNL1        0.4055
     31 O         139.8239  145.3176  159.7557 O.2     1  UNL1       -0.2262
     32 O         141.0765  144.5113  161.9752 O.3     1  UNL1       -0.4304
     33 C         142.0422  143.4129  162.3086 C.3     1  UNL1        0.2280
     34 C         142.3136  142.6376  161.0535 C.3     1  UNL1        0.1249
     35 C         143.2232  141.4514  160.9293 C.3     1  UNL1        0.0259
     36 C         142.6327  143.1382  163.6597 C.ar    1  UNL1        0.1003
     37 C         143.7374  144.0058  164.1860 C.ar    1  UNL1        0.0184
     38 C         144.3279  143.7311  165.5371 C.ar    1  UNL1        0.0028
     39 C         143.8139  142.5887  166.3621 C.ar    1  UNL1        0.0231
     40 C         142.7092  141.7209  165.8359 C.ar    1  UNL1        0.1523
     41 N         142.1187  141.9958  164.4847 N.ar    1  UNL1       -0.2421
     42 C         142.1951  140.5785  166.6609 C.3     1  UNL1        0.4348
     43 F         141.6811  139.4361  167.4859 F       1  UNL1       -0.1644
     44 F         141.7235  139.8905  165.4143 F       1  UNL1       -0.1644
     45 F         142.6667  141.2666  167.9076 F       1  UNL1       -0.1644
@<TRIPOS>UNITY_ATOM_ATTR
21 1
charge -1
@<TRIPOS>BOND
     1    23    24    1
     2    24     7    1
     3     7     8   ar
     4     8     9   ar
     5     9    10   ar
     6    10    13    1
     7    13    14   ar
     8    14    15   ar
     9    15    16   ar
    10    16    20    1
    11    20    21   ar
    12    20    22   ar
    13    16    17   ar
    14    17    18   ar
    15    18    19    1
    16    10    11   ar
    17    11    12   ar
    18    12     1    1
    19     1     2   ar
    20     2     3   ar
    21     3     4   ar
    22     4    25    1
    23    25    26    1
    24    25    27    1
    25     4     5   ar
    26     5     6   ar
    27     6    28    1
    28    28    29    1
    29    29    30   am
    30    30    31    2
    31    30    32    1
    32    32    33    1
    33    33    36    1
    34    36    37   ar
    35    37    38   ar
    36    38    39   ar
    37    39    40   ar
    38    40    42    1
    39    42    43    1
    40    42    44    1
    41    42    45    1
    42    40    41   ar
    43    33    34    1
    44    34    35    1
    45    12     7   ar
    46     6     1   ar
    47    34    29    1
    48    18    13   ar
    49    41    36   ar
@<TRIPOS>MOLECULE
*****
 45 49 0 0 0
SMALL
GASTEIGER

@<TRIPOS>ATOM
      1 C         141.7298  141.3378  159.2201 C.ar    1  UNL1        0.0375
      2 C         140.7759  141.3834  158.0634 C.ar    1  UNL1        0.1031
      3 N         140.7126  142.6019  157.1910 N.ar    1  UNL1       -0.2121
      4 C         141.6033  143.7750  157.4753 C.ar    1  UNL1        0.2200
      5 N         142.5572  143.7294  158.6320 N.ar    1  UNL1       -0.2163
      6 C         142.6204  142.5108  159.5044 C.ar    1  UNL1        0.0836
      7 C         142.6744  138.9675  159.7095 C.ar    1  UNL1        0.1387
      8 C         142.7376  137.7490  160.5819 C.ar    1  UNL1        0.0369
      9 C         141.9195  137.6821  161.8373 C.ar    1  UNL1        0.0031
     10 C         141.0381  138.8338  162.2204 C.ar    1  UNL1       -0.0001
     11 C         140.9749  140.0523  161.3480 C.ar    1  UNL1        0.0031
     12 C         141.7930  140.1192  160.0925 C.ar    1  UNL1        0.0367
     13 C         140.2199  138.7669  163.4758 C.ar    1  UNL1       -0.0039
     14 C         140.2135  137.5144  164.3010 C.ar    1  UNL1       -0.0003
     15 C         139.3953  137.4475  165.5564 C.ar    1  UNL1        0.0011
     16 C         138.5836  138.6332  165.9867 C.ar    1  UNL1        0.0137
     17 C         138.5901  139.8858  165.1616 C.ar    1  UNL1       -0.0031
     18 C         139.4083  139.9527  163.9061 C.ar    1  UNL1       -0.0218
     19 C         139.4147  141.2053  163.0809 C.3     1  UNL1        0.0310
     20 C         137.7655  138.5664  167.2422 C.2     1  UNL1        0.0729
     21 O         136.5583  137.6782  167.3043 O.co2   1  UNL1       -0.5446
     22 O         138.1545  139.3876  168.4355 O.co2   1  UNL1       -0.5446
     23 C         142.9810  138.4072  157.1912 C.3     1  UNL1        0.2525
     24 O         143.4926  139.0344  158.4540 O.3     1  UNL1       -0.4714
     25 N         141.5400  144.9935  156.6029 N.pl3   1  UNL1       -0.2747
     26 C         140.6514  146.1414  156.9811 C.3     1  UNL1        0.1151
     27 C         142.3652  145.0642  155.3524 C.3     1  UNL1        0.1151
     28 C         143.5744  142.4652  160.6611 C.3     1  UNL1        0.1428
     29 N         143.0581  142.5862  162.0643 N.am    1  UNL1       -0.2380
     30 C         142.1527  143.6650  162.5806 C.2     1  UNL1        0.4055
     31 O         141.6046  144.8121  161.7844 O.2     1  UNL1       -0.2262
     32 O         141.8915  143.3952  164.0329 O.3     1  UNL1       -0.4304
     33 C         142.6356  142.1497  164.4141 C.3     1  UNL1        0.2280
     34 C         143.3565  141.6497  163.1974 C.3     1  UNL1        0.1249
     35 C         144.2236  140.4279  163.1263 C.3     1  UNL1        0.0259
     36 C         142.6552  141.5156  165.7732 C.ar    1  UNL1        0.1003
     37 C         142.5433  140.0258  165.9075 C.ar    1  UNL1        0.0184
     38 C         142.5630  139.3916  167.2667 C.ar    1  UNL1        0.0028
     39 C         142.6944  140.2472  168.4917 C.ar    1  UNL1        0.0231
     40 C         142.8062  141.7371  168.3575 C.ar    1  UNL1        0.1523
     41 N         142.7866  142.3712  166.9982 N.ar    1  UNL1       -0.2421
     42 C         142.9377  142.5927  169.5825 C.3     1  UNL1        0.4348
     43 F         143.0691  143.4483  170.8075 F       1  UNL1       -0.1644
     44 F         141.4705  142.8995  169.5256 F       1  UNL1       -0.1644
     45 F         144.4048  142.2859  169.6393 F       1  UNL1       -0.1644
@<TRIPOS>UNITY_ATOM_ATTR
21 1
charge -1
@<TRIPOS>BOND
     1    23    24    1
     2    24     7    1
     3     7     8   ar
     4     8     9   ar
     5     9    10   ar
     6    10    13    1
     7    13    14   ar
     8    14    15   ar
     9    15    16   ar
    10    16    20    1
    11    20    21   ar
    12    20    22   ar
    13    16    17   ar
    14    17    18   ar
    15    18    19    1
    16    10    11   ar
    17    11    12   ar
    18    12     1    1
    19     1     2   ar
    20     2     3   ar
    21     3     4   ar
    22     4    25    1
    23    25    26    1
    24    25    27    1
    25     4     5   ar
    26     5     6   ar
    27     6    28    1
    28    28    29    1
    29    29    30   am
    30    30    31    2
    31    30    32    1
    32    32    33    1
    33    33    36    1
    34    36    37   ar
    35    37    38   ar
    36    38    39   ar
    37    39    40   ar
    38    40    42    1
    39    42    43    1
    40    42    44    1
    41    42    45    1
    42    40    41   ar
    43    33    34    1
    44    34    35    1
    45    12     7   ar
    46     6     1   ar
    47    34    29    1
    48    18    13   ar
    49    41    36   ar
@<TRIPOS>MOLECULE
*****
 45 49 0 0 0
SMALL
GASTEIGER

@<TRIPOS>ATOM
      1 C         140.0526  141.8362  158.6039 C.ar    1  UNL1        0.0375
      2 C         139.0367  141.7011  157.5086 C.ar    1  UNL1        0.1031
      3 N         138.6700  142.8927  156.6746 N.ar    1  UNL1       -0.2121
      4 C         139.3192  144.2195  156.9359 C.ar    1  UNL1        0.2200
      5 N         140.3351  144.3546  158.0312 N.ar    1  UNL1       -0.2163
      6 C         140.7018  143.1629  158.8652 C.ar    1  UNL1        0.0836
      7 C         141.3484  139.6025  158.8895 C.ar    1  UNL1        0.1387
      8 C         141.7150  138.4109  159.7235 C.ar    1  UNL1        0.0369
      9 C         141.1525  138.2613  161.1060 C.ar    1  UNL1        0.0031
     10 C         140.2234  139.3034  161.6544 C.ar    1  UNL1       -0.0001
     11 C         139.8567  140.4950  160.8204 C.ar    1  UNL1        0.0031
     12 C         140.4192  140.6445  159.4379 C.ar    1  UNL1        0.0367
     13 C         139.6609  139.1538  163.0369 C.ar    1  UNL1       -0.0039
     14 C         138.6253  140.1185  163.5337 C.ar    1  UNL1       -0.0003
     15 C         138.0628  139.9690  164.9161 C.ar    1  UNL1        0.0011
     16 C         138.5359  138.8546  165.8018 C.ar    1  UNL1        0.0137
     17 C         139.5714  137.8899  165.3050 C.ar    1  UNL1       -0.0031
     18 C         140.1339  138.0395  163.9226 C.ar    1  UNL1       -0.0218
     19 C         141.1695  137.0746  163.4258 C.3     1  UNL1        0.0310
     20 C         137.9734  138.7051  167.1843 C.2     1  UNL1        0.0729
     21 O         136.8027  137.7984  167.4236 O.co2   1  UNL1       -0.5446
     22 O         138.5816  139.4622  168.3274 O.co2   1  UNL1       -0.5446
     23 C         141.3533  138.9368  156.3782 C.3     1  UNL1        0.2525
     24 O         141.9109  139.7521  157.5070 O.3     1  UNL1       -0.4714
     25 N         138.9525  145.4111  156.1019 N.pl3   1  UNL1       -0.2747
     26 C         137.9021  145.2875  155.0382 C.3     1  UNL1        0.1151
     27 C         139.6362  146.7263  156.3316 C.3     1  UNL1        0.1151
     28 C         141.7176  143.2981  159.9606 C.3     1  UNL1        0.1428
     29 N         141.2842  143.2483  161.3958 N.am    1  UNL1       -0.2380
     30 C         140.1648  144.0382  162.0065 C.2     1  UNL1        0.4055
     31 O         139.2823  145.0164  161.2894 O.2     1  UNL1       -0.2262
     32 O         140.0828  143.6781  163.4604 O.3     1  UNL1       -0.4304
     33 C         141.1517  142.6656  163.7481 C.3     1  UNL1        0.2280
     34 C         141.8941  142.4001  162.4721 C.3     1  UNL1        0.1249
     35 C         143.0445  141.4526  162.3022 C.3     1  UNL1        0.0259
     36 C         141.4292  142.0304  165.0782 C.ar    1  UNL1        0.1003
     37 C         140.9616  142.6950  166.3390 C.ar    1  UNL1        0.0184
     38 C         141.2392  142.0597  167.6691 C.ar    1  UNL1        0.0028
     39 C         141.9844  140.7598  167.7385 C.ar    1  UNL1        0.0231
     40 C         142.4520  140.0951  166.4777 C.ar    1  UNL1        0.1523
     41 N         142.1744  140.7304  165.1476 N.ar    1  UNL1       -0.2421
     42 C         143.1972  138.7951  166.5471 C.3     1  UNL1        0.4348
     43 F         143.9424  137.4952  166.6165 F       1  UNL1       -0.1644
     44 F         143.4387  138.8546  165.0679 F       1  UNL1       -0.1644
     45 F         142.9558  138.7357  168.0264 F       1  UNL1       -0.1644
@<TRIPOS>UNITY_ATOM_ATTR
21 1
charge -1
@<TRIPOS>BOND
     1    23    24    1
     2    24     7    1
     3     7     8   ar
     4     8     9   ar
     5     9    10   ar
     6    10    13    1
     7    13    14   ar
     8    14    15   ar
     9    15    16   ar
    10    16    20    1
    11    20    21   ar
    12    20    22   ar
    13    16    17   ar
    14    17    18   ar
    15    18    19    1
    16    10    11   ar
    17    11    12   ar
    18    12     1    1
    19     1     2   ar
    20     2     3   ar
    21     3     4   ar
    22     4    25    1
    23    25    26    1
    24    25    27    1
    25     4     5   ar
    26     5     6   ar
    27     6    28    1
    28    28    29    1
    29    29    30   am
    30    30    31    2
    31    30    32    1
    32    32    33    1
    33    33    36    1
    34    36    37   ar
    35    37    38   ar
    36    38    39   ar
    37    39    40   ar
    38    40    42    1
    39    42    43    1
    40    42    44    1
    41    42    45    1
    42    40    41   ar
    43    33    34    1
    44    34    35    1
    45    12     7   ar
    46     6     1   ar
    47    34    29    1
    48    18    13   ar
    49    41    36   ar
@<TRIPOS>MOLECULE
*****
 45 49 0 0 0
SMALL
GASTEIGER

@<TRIPOS>ATOM
      1 C         140.2783  138.7832  157.8845 C.ar    1  UNL1        0.0375
      2 C         139.6705  137.6645  157.0913 C.ar    1  UNL1        0.1031
      3 N         138.9118  137.9637  155.8324 N.ar    1  UNL1       -0.2121
      4 C         138.7608  139.3816  155.3667 C.ar    1  UNL1        0.2200
      5 N         139.3687  140.5003  156.1599 N.ar    1  UNL1       -0.2163
      6 C         140.1274  140.2010  157.4188 C.ar    1  UNL1        0.0836
      7 C         142.4800  138.0805  159.0715 C.ar    1  UNL1        0.1387
      8 C         143.2386  137.7813  160.3304 C.ar    1  UNL1        0.0369
      9 C         142.5544  137.8855  161.6612 C.ar    1  UNL1        0.0031
     10 C         141.1115  138.2888  161.7331 C.ar    1  UNL1       -0.0001
     11 C         140.3528  138.5881  160.4742 C.ar    1  UNL1        0.0031
     12 C         141.0371  138.4839  159.1434 C.ar    1  UNL1        0.0367
     13 C         140.4272  138.3930  163.0638 C.ar    1  UNL1       -0.0039
     14 C         139.0918  137.7429  163.2735 C.ar    1  UNL1       -0.0003
     15 C         138.4075  137.8471  164.6042 C.ar    1  UNL1        0.0011
     16 C         139.0587  138.6013  165.7254 C.ar    1  UNL1        0.0137
     17 C         140.3941  139.2514  165.5158 C.ar    1  UNL1       -0.0031
     18 C         141.0784  139.1473  164.1850 C.ar    1  UNL1       -0.0218
     19 C         142.4139  139.7974  163.9754 C.3     1  UNL1        0.0310
     20 C         138.3744  138.7055  167.0562 C.2     1  UNL1        0.0729
     21 O         138.9784  139.5395  168.1468 O.co2   1  UNL1       -0.5446
     22 O         137.0862  137.9756  167.2963 O.co2   1  UNL1       -0.5446
     23 C         143.1385  136.6819  156.9835 C.3     1  UNL1        0.2525
     24 O         143.1642  137.9764  157.7408 O.3     1  UNL1       -0.4714
     25 N         138.0021  139.6808  154.1078 N.pl3   1  UNL1       -0.2747
     26 C         138.1799  141.0025  153.4211 C.3     1  UNL1        0.1151
     27 C         137.0656  138.6583  153.5357 C.3     1  UNL1        0.1151
     28 C         140.7352  141.3197  158.2120 C.3     1  UNL1        0.1428
     29 N         139.9493  141.9744  159.3092 N.am    1  UNL1       -0.2380
     30 C         138.5492  142.5008  159.1975 C.2     1  UNL1        0.4055
     31 O         137.6891  142.4651  157.9691 O.2     1  UNL1       -0.2262
     32 O         138.1601  143.0694  160.5300 O.3     1  UNL1       -0.4304
     33 C         139.3198  142.8942  161.4652 C.3     1  UNL1        0.2280
     34 C         140.4256  142.2175  160.7107 C.3     1  UNL1        0.1249
     35 C         141.7713  141.8486  161.2609 C.3     1  UNL1        0.0259
     36 C         139.3657  143.3209  162.9024 C.ar    1  UNL1        0.1003
     37 C         138.3712  144.3169  163.4213 C.ar    1  UNL1        0.0184
     38 C         138.4171  144.7435  164.8585 C.ar    1  UNL1        0.0028
     39 C         139.4574  144.1743  165.7770 C.ar    1  UNL1        0.0231
     40 C         140.4519  143.1784  165.2582 C.ar    1  UNL1        0.1523
     41 N         140.4060  142.7517  163.8209 N.ar    1  UNL1       -0.2421
     42 C         141.4922  142.6092  166.1768 C.3     1  UNL1        0.4348
     43 F         142.5326  142.0399  167.0953 F       1  UNL1       -0.1644
     44 F         142.5651  143.0006  165.2043 F       1  UNL1       -0.1644
     45 F         140.4194  142.2177  167.1493 F       1  UNL1       -0.1644
@<TRIPOS>UNITY_ATOM_ATTR
21 1
charge -1
@<TRIPOS>BOND
     1    23    24    1
     2    24     7    1
     3     7     8   ar
     4     8     9   ar
     5     9    10   ar
     6    10    13    1
     7    13    14   ar
     8    14    15   ar
     9    15    16   ar
    10    16    20    1
    11    20    21   ar
    12    20    22   ar
    13    16    17   ar
    14    17    18   ar
    15    18    19    1
    16    10    11   ar
    17    11    12   ar
    18    12     1    1
    19     1     2   ar
    20     2     3   ar
    21     3     4   ar
    22     4    25    1
    23    25    26    1
    24    25    27    1
    25     4     5   ar
    26     5     6   ar
    27     6    28    1
    28    28    29    1
    29    29    30   am
    30    30    31    2
    31    30    32    1
    32    32    33    1
    33    33    36    1
    34    36    37   ar
    35    37    38   ar
    36    38    39   ar
    37    39    40   ar
    38    40    42    1
    39    42    43    1
    40    42    44    1
    41    42    45    1
    42    40    41   ar
    43    33    34    1
    44    34    35    1
    45    12     7   ar
    46     6     1   ar
    47    34    29    1
    48    18    13   ar
    49    41    36   ar
@<TRIPOS>MOLECULE
*****
 45 49 0 0 0
SMALL
GASTEIGER

@<TRIPOS>ATOM
      1 C         141.0628  139.2442  158.4658 C.ar    1  UNL1        0.0375
      2 C         140.1383  138.3819  157.6583 C.ar    1  UNL1        0.1031
      3 N         140.6988  137.3863  156.6865 N.ar    1  UNL1       -0.2121
      4 C         142.1839  137.2529  156.5220 C.ar    1  UNL1        0.2200
      5 N         143.1083  138.1151  157.3295 N.ar    1  UNL1       -0.2163
      6 C         142.5477  139.1108  158.3014 C.ar    1  UNL1        0.0836
      7 C         140.2600  141.6555  159.0052 C.ar    1  UNL1        0.1387
      8 C         139.6994  142.6511  159.9771 C.ar    1  UNL1        0.0369
      9 C         139.3810  142.2309  161.3814 C.ar    1  UNL1        0.0031
     10 C         139.6232  140.8152  161.8139 C.ar    1  UNL1       -0.0001
     11 C         140.1838  139.8197  160.8420 C.ar    1  UNL1        0.0031
     12 C         140.5022  140.2398  159.4377 C.ar    1  UNL1        0.0367
     13 C         139.3049  140.3951  163.2182 C.ar    1  UNL1       -0.0039
     14 C         139.6776  141.2819  164.3691 C.ar    1  UNL1       -0.0003
     15 C         139.3592  140.8617  165.7734 C.ar    1  UNL1        0.0011
     16 C         138.6681  139.5548  166.0268 C.ar    1  UNL1        0.0137
     17 C         138.2954  138.6680  164.8759 C.ar    1  UNL1       -0.0031
     18 C         138.6138  139.0882  163.4716 C.ar    1  UNL1       -0.0218
     19 C         138.2410  138.2013  162.3207 C.3     1  UNL1        0.0310
     20 C         138.3498  139.1346  167.4311 C.2     1  UNL1        0.0729
     21 O         137.3287  138.0646  167.6806 O.co2   1  UNL1       -0.5446
     22 O         139.0525  139.7845  168.5860 O.co2   1  UNL1       -0.5446
     23 C         141.8464  142.8224  157.3107 C.3     1  UNL1        0.2525
     24 O         140.5783  142.0757  157.6009 O.3     1  UNL1       -0.4714
     25 N         142.7444  136.2573  155.5502 N.pl3   1  UNL1       -0.2747
     26 C         141.9965  135.9361  154.2903 C.3     1  UNL1        0.1151
     27 C         144.0528  135.5829  155.8383 C.3     1  UNL1        0.1151
     28 C         143.4721  139.9730  159.1088 C.3     1  UNL1        0.1428
     29 N         143.5824  139.7714  160.5912 N.am    1  UNL1       -0.2380
     30 C         143.8960  138.4785  161.2841 C.2     1  UNL1        0.4055
     31 O         144.1543  137.1603  160.6165 O.2     1  UNL1       -0.2262
     32 O         143.9058  138.7352  162.7620 O.3     1  UNL1       -0.4304
     33 C         143.5983  140.1868  162.9824 C.3     1  UNL1        0.2280
     34 C         143.3985  140.8271  161.6407 C.3     1  UNL1        0.1249
     35 C         143.0720  142.2699  161.3922 C.3     1  UNL1        0.0259
     36 C         143.5068  140.8768  164.3110 C.ar    1  UNL1        0.1003
     37 C         143.8797  142.3247  164.4315 C.ar    1  UNL1        0.0184
     38 C         143.7882  143.0148  165.7602 C.ar    1  UNL1        0.0028
     39 C         143.3237  142.2569  166.9684 C.ar    1  UNL1        0.0231
     40 C         142.9507  140.8090  166.8480 C.ar    1  UNL1        0.1523
     41 N         143.0423  140.1190  165.5193 N.ar    1  UNL1       -0.2421
     42 C         142.4863  140.0511  168.0563 C.3     1  UNL1        0.4348
     43 F         142.0218  139.2933  169.2646 F       1  UNL1       -0.1644
     44 F         143.1832  141.0392  168.9439 F       1  UNL1       -0.1644
     45 F         141.7893  139.0630  167.1686 F       1  UNL1       -0.1644
@<TRIPOS>UNITY_ATOM_ATTR
21 1
charge -1
@<TRIPOS>BOND
     1    23    24    1
     2    24     7    1
     3     7     8   ar
     4     8     9   ar
     5     9    10   ar
     6    10    13    1
     7    13    14   ar
     8    14    15   ar
     9    15    16   ar
    10    16    20    1
    11    20    21   ar
    12    20    22   ar
    13    16    17   ar
    14    17    18   ar
    15    18    19    1
    16    10    11   ar
    17    11    12   ar
    18    12     1    1
    19     1     2   ar
    20     2     3   ar
    21     3     4   ar
    22     4    25    1
    23    25    26    1
    24    25    27    1
    25     4     5   ar
    26     5     6   ar
    27     6    28    1
    28    28    29    1
    29    29    30   am
    30    30    31    2
    31    30    32    1
    32    32    33    1
    33    33    36    1
    34    36    37   ar
    35    37    38   ar
    36    38    39   ar
    37    39    40   ar
    38    40    42    1
    39    42    43    1
    40    42    44    1
    41    42    45    1
    42    40    41   ar
    43    33    34    1
    44    34    35    1
    45    12     7   ar
    46     6     1   ar
    47    34    29    1
    48    18    13   ar
    49    41    36   ar
@<TRIPOS>MOLECULE
*****
 45 49 0 0 0
SMALL
GASTEIGER

@<TRIPOS>ATOM
      1 C         141.7566  142.6781  161.1330 C.ar    1  UNL1        0.0375
      2 C         142.0455  144.1323  160.9057 C.ar    1  UNL1        0.1031
      3 N         141.4540  144.8385  159.7219 N.ar    1  UNL1       -0.2121
      4 C         140.5735  144.0903  158.7653 C.ar    1  UNL1        0.2200
      5 N         140.2845  142.6361  158.9926 N.ar    1  UNL1       -0.2163
      6 C         140.8761  141.9300  160.1764 C.ar    1  UNL1        0.0836
      7 C         143.6773  141.2877  162.1948 C.ar    1  UNL1        0.1387
      8 C         144.2688  140.5816  163.3787 C.ar    1  UNL1        0.0369
      9 C         143.5311  140.5598  164.6845 C.ar    1  UNL1        0.0031
     10 C         142.2020  141.2441  164.8066 C.ar    1  UNL1       -0.0001
     11 C         141.6105  141.9502  163.6227 C.ar    1  UNL1        0.0031
     12 C         142.3481  141.9720  162.3169 C.ar    1  UNL1        0.0367
     13 C         141.4643  141.2223  166.1125 C.ar    1  UNL1       -0.0039
     14 C         141.6156  142.3599  167.0784 C.ar    1  UNL1       -0.0003
     15 C         140.8779  142.3381  168.3843 C.ar    1  UNL1        0.0011
     16 C         139.9889  141.1788  168.7243 C.ar    1  UNL1        0.0137
     17 C         139.8376  140.0412  167.7583 C.ar    1  UNL1       -0.0031
     18 C         140.5753  140.0630  166.4524 C.ar    1  UNL1       -0.0218
     19 C         140.4239  138.9254  165.4865 C.3     1  UNL1        0.0310
     20 C         139.2512  141.1570  170.0301 C.2     1  UNL1        0.0729
     21 O         139.3879  142.3032  170.9880 O.co2   1  UNL1       -0.5446
     22 O         138.3768  139.9890  170.3782 O.co2   1  UNL1       -0.5446
     23 C         145.1462  142.5472  160.4611 C.3     1  UNL1        0.2525
     24 O         144.4150  141.3094  160.8889 O.3     1  UNL1       -0.4714
     25 N         139.9820  144.7965  157.5815 N.pl3   1  UNL1       -0.2747
     26 C         140.0655  146.2908  157.4807 C.3     1  UNL1        0.1151
     27 C         139.3069  144.0083  156.4984 C.3     1  UNL1        0.1151
     28 C         140.5871  140.4757  160.4037 C.3     1  UNL1        0.1428
     29 N         140.5066  139.5358  159.2374 N.am    1  UNL1       -0.2380
     30 C         139.2982  139.2934  158.3824 C.2     1  UNL1        0.4055
     31 O         137.9583  139.9481  158.5434 O.2     1  UNL1       -0.2262
     32 O         139.6651  138.2811  157.3378 O.3     1  UNL1       -0.4304
     33 C         141.1002  137.8981  157.5475 C.3     1  UNL1        0.2280
     34 C         141.6202  138.6735  158.7214 C.3     1  UNL1        0.1249
     35 C         143.0099  138.5997  159.2812 C.3     1  UNL1        0.0259
     36 C         141.8785  136.9126  156.7271 C.ar    1  UNL1        0.1003
     37 C         141.9462  137.0653  155.2364 C.ar    1  UNL1        0.0184
     38 C         142.7245  136.0799  154.4161 C.ar    1  UNL1        0.0028
     39 C         143.4352  134.9416  155.0864 C.ar    1  UNL1        0.0231
     40 C         143.3676  134.7889  156.5772 C.ar    1  UNL1        0.1523
     41 N         142.5892  135.7744  157.3974 N.ar    1  UNL1       -0.2421
     42 C         144.0783  133.6507  157.2475 C.3     1  UNL1        0.4348
     43 F         144.7891  132.5124  157.9178 F       1  UNL1       -0.1644
     44 F         143.6461  134.1695  158.5869 F       1  UNL1       -0.1644
     45 F         144.5106  133.1318  155.9081 F       1  UNL1       -0.1644
@<TRIPOS>UNITY_ATOM_ATTR
21 1
charge -1
@<TRIPOS>BOND
     1    23    24    1
     2    24     7    1
     3     7     8   ar
     4     8     9   ar
     5     9    10   ar
     6    10    13    1
     7    13    14   ar
     8    14    15   ar
     9    15    16   ar
    10    16    20    1
    11    20    21   ar
    12    20    22   ar
    13    16    17   ar
    14    17    18   ar
    15    18    19    1
    16    10    11   ar
    17    11    12   ar
    18    12     1    1
    19     1     2   ar
    20     2     3   ar
    21     3     4   ar
    22     4    25    1
    23    25    26    1
    24    25    27    1
    25     4     5   ar
    26     5     6   ar
    27     6    28    1
    28    28    29    1
    29    29    30   am
    30    30    31    2
    31    30    32    1
    32    32    33    1
    33    33    36    1
    34    36    37   ar
    35    37    38   ar
    36    38    39   ar
    37    39    40   ar
    38    40    42    1
    39    42    43    1
    40    42    44    1
    41    42    45    1
    42    40    41   ar
    43    33    34    1
    44    34    35    1
    45    12     7   ar
    46     6     1   ar
    47    34    29    1
    48    18    13   ar
    49    41    36   ar
