@<TRIPOS>MOLECULE
*****
 40 43 0 0 0
SMALL
GASTEIGER

@<TRIPOS>ATOM
      1 C         142.6818  141.4439  166.6201 C.ar    1  UNL1        0.0476
      2 C         143.2163  142.4031  167.6420 C.ar    1  UNL1        0.0141
      3 C         143.2906  141.9980  169.0843 C.ar    1  UNL1       -0.0006
      4 C         142.8304  140.6337  169.5048 C.ar    1  UNL1        0.0068
      5 C         142.2959  139.6745  168.4830 C.ar    1  UNL1       -0.0036
      6 C         142.2216  140.0796  167.0406 C.ar    1  UNL1        0.0071
      7 C         141.5067  142.7533  164.7085 C.2     1  UNL1        0.2386
      8 O         140.4800  143.2524  165.6815 O.2     1  UNL1       -0.2739
      9 N         142.6076  141.8490  165.1777 N.am    1  UNL1       -0.2835
     10 H         143.2814  141.5214  164.5391 H       1  UNL1        0.1549
     11 C         141.2096  144.3739  158.9391 C.ar    1  UNL1        0.0624
     12 C         140.0564  143.9238  158.0921 C.ar    1  UNL1        0.0452
     13 C         138.9775  143.0685  158.6874 C.ar    1  UNL1        0.1414
     14 F         137.8242  142.6184  157.8403 F       1  UNL1       -0.2041
     15 C         139.0517  142.6633  160.1297 C.ar    1  UNL1        0.0307
     16 C         140.2049  143.1134  160.9767 C.ar    1  UNL1        0.0155
     17 C         140.2792  142.7083  162.4191 C.2     1  UNL1       -0.0068
     18 C         141.4324  143.1584  163.2661 C.3     1  UNL1        0.1768
     19 C         142.5113  144.0137  162.6708 C.2     1  UNL1        0.2581
     20 O         143.6646  144.4638  163.5179 O.2     1  UNL1       -0.2721
     21 N         142.4371  144.4188  161.2285 N.am    1  UNL1       -0.1773
     22 C         141.2838  143.9687  160.3814 C.ar    1  UNL1        0.0862
     23 C         142.0527  145.9359  157.0420 C.3     1  UNL1        0.1086
     24 N         142.2886  145.2292  158.3438 N.pl3   1  UNL1       -0.3302
     25 H         143.1515  145.3266  158.8076 H       1  UNL1        0.1469
     26 C         142.9046  140.2286  170.9471 C.3     1  UNL1        0.1636
     27 O         144.0480  139.3873  171.4320 O.3     1  UNL1       -0.3772
     28 H         144.0021  138.5106  171.0193 H       1  UNL1        0.2109
     29 C         141.6871  139.1204  166.0187 C.3     1  UNL1        0.1004
     30 N         140.3631  139.3824  165.3644 N.3     1  UNL1       -0.2681
     31 C         140.1541  139.0217  163.9235 C.3     1  UNL1        0.0579
     32 C         141.2536  139.2442  162.9276 C.3     1  UNL1        0.0160
     33 C         141.0447  138.8836  161.4867 C.3     1  UNL1        0.0014
     34 C         139.7363  138.3005  161.0416 C.3     1  UNL1        0.0001
     35 C         138.6369  138.0779  162.0374 C.3     1  UNL1        0.0014
     36 C         138.8458  138.4386  163.4784 C.3     1  UNL1        0.0160
     37 C         139.2479  140.0050  166.1509 C.3     1  UNL1        0.1044
     38 C         138.5130  139.1969  167.1789 C.3     1  UNL1        0.1544
     39 O         138.7168  139.4762  168.6386 O.3     1  UNL1       -0.3805
     40 H         139.6299  139.2601  168.8847 H       1  UNL1        0.2105
@<TRIPOS>BOND
     1    23    24    1
     2    24    11    1
     3    11    12   ar
     4    12    13   ar
     5    13    14    1
     6    13    15   ar
     7    15    16   ar
     8    16    17    2
     9    17    18    1
    10    18     7    1
    11     7     8    2
    12     7     9   am
    13     9     1    1
    14     1     2   ar
    15     2     3   ar
    16     3     4   ar
    17     4    26    1
    18    26    27    1
    19     4     5   ar
    20     5     6   ar
    21     6    29    1
    22    29    30    1
    23    30    37    1
    24    37    38    1
    25    38    39    1
    26    30    31    1
    27    31    32    1
    28    32    33    1
    29    33    34    1
    30    34    35    1
    31    35    36    1
    32    18    19    1
    33    19    20    2
    34    19    21    1
    35    21    22    2
    36    22    11   ar
    37    22    16   ar
    38     6     1   ar
    39    36    31    1
    40    24    25    1
    41     9    10    1
    42    27    28    1
    43    39    40    1
@<TRIPOS>MOLECULE
*****
 40 43 0 0 0
SMALL
GASTEIGER

@<TRIPOS>ATOM
      1 C         142.1175  142.5280  165.5926 C.ar    1  UNL1        0.0476
      2 C         143.3625  142.4122  166.4213 C.ar    1  UNL1        0.0141
      3 C         143.2660  142.3649  167.9174 C.ar    1  UNL1       -0.0006
      4 C         141.9244  142.4335  168.5849 C.ar    1  UNL1        0.0068
      5 C         140.6795  142.5493  167.7564 C.ar    1  UNL1       -0.0036
      6 C         140.7760  142.5966  166.2602 C.ar    1  UNL1        0.0071
      7 C         142.2096  143.8962  163.3861 C.2     1  UNL1        0.2386
      8 O         142.1086  145.1700  164.1717 O.2     1  UNL1       -0.2739
      9 N         142.2141  142.5752  164.0965 N.am    1  UNL1       -0.2835
     10 H         142.2804  141.7392  163.5809 H       1  UNL1        0.1549
     11 C         142.5960  144.0853  157.4015 C.ar    1  UNL1        0.0624
     12 C         141.5768  144.8478  156.6078 C.ar    1  UNL1        0.0452
     13 C         140.4610  145.5630  157.3103 C.ar    1  UNL1        0.1414
     14 F         139.4417  146.3255  156.5166 F       1  UNL1       -0.2041
     15 C         140.3644  145.5157  158.8064 C.ar    1  UNL1        0.0307
     16 C         141.3836  144.7533  159.6001 C.ar    1  UNL1        0.0155
     17 C         141.2870  144.7060  161.0963 C.2     1  UNL1       -0.0068
     18 C         142.3062  143.9435  161.8899 C.3     1  UNL1        0.1768
     19 C         143.4220  143.2283  161.1874 C.2     1  UNL1        0.2581
     20 O         144.4412  142.4659  161.9811 O.2     1  UNL1       -0.2721
     21 N         143.5186  143.2756  159.6913 N.am    1  UNL1       -0.1773
     22 C         142.4994  144.0381  158.8976 C.ar    1  UNL1        0.0862
     23 C         143.4185  142.1573  155.8666 C.3     1  UNL1        0.1086
     24 N         143.7118  143.3702  156.6990 N.pl3   1  UNL1       -0.3302
     25 H         144.6366  143.6968  156.7842 H       1  UNL1        0.1469
     26 C         141.8279  142.3863  170.0810 C.3     1  UNL1        0.1636
     27 O         142.6557  143.3179  170.9159 O.3     1  UNL1       -0.3772
     28 H         143.5949  143.1016  170.8069 H       1  UNL1        0.2109
     29 C         139.5310  142.7124  165.4316 C.3     1  UNL1        0.1004
     30 N         139.2180  141.6707  164.3986 N.3     1  UNL1       -0.2681
     31 C         139.0809  140.2324  164.8015 C.3     1  UNL1        0.0579
     32 C         139.8192  139.1680  164.0451 C.3     1  UNL1        0.0160
     33 C         139.6821  137.7297  164.4480 C.3     1  UNL1        0.0014
     34 C         138.8067  137.3556  165.6072 C.3     1  UNL1        0.0001
     35 C         138.0684  138.4199  166.3636 C.3     1  UNL1        0.0014
     36 C         138.2055  139.8584  165.9607 C.3     1  UNL1        0.0160
     37 C         139.0420  142.0674  162.9628 C.3     1  UNL1        0.1044
     38 C         137.6704  142.1008  162.3566 C.3     1  UNL1        0.1544
     39 O         136.5475  141.3419  162.9996 O.3     1  UNL1       -0.3805
     40 H         136.7267  140.3902  162.9435 H       1  UNL1        0.2105
@<TRIPOS>BOND
     1    23    24    1
     2    24    11    1
     3    11    12   ar
     4    12    13   ar
     5    13    14    1
     6    13    15   ar
     7    15    16   ar
     8    16    17    2
     9    17    18    1
    10    18     7    1
    11     7     8    2
    12     7     9   am
    13     9     1    1
    14     1     2   ar
    15     2     3   ar
    16     3     4   ar
    17     4    26    1
    18    26    27    1
    19     4     5   ar
    20     5     6   ar
    21     6    29    1
    22    29    30    1
    23    30    37    1
    24    37    38    1
    25    38    39    1
    26    30    31    1
    27    31    32    1
    28    32    33    1
    29    33    34    1
    30    34    35    1
    31    35    36    1
    32    18    19    1
    33    19    20    2
    34    19    21    1
    35    21    22    2
    36    22    11   ar
    37    22    16   ar
    38     6     1   ar
    39    36    31    1
    40    24    25    1
    41     9    10    1
    42    27    28    1
    43    39    40    1
@<TRIPOS>MOLECULE
*****
 40 43 0 0 0
SMALL
GASTEIGER

@<TRIPOS>ATOM
      1 C         141.5701  142.6832  164.6478 C.ar    1  UNL1        0.0476
      2 C         142.9831  142.4723  165.1048 C.ar    1  UNL1        0.0141
      3 C         143.2647  142.1302  166.5379 C.ar    1  UNL1       -0.0006
      4 C         142.1333  141.9990  167.5139 C.ar    1  UNL1        0.0068
      5 C         140.7203  142.2099  167.0569 C.ar    1  UNL1       -0.0036
      6 C         140.4387  142.5520  165.6238 C.ar    1  UNL1        0.0071
      7 C         141.6050  144.3963  162.6949 C.2     1  UNL1        0.2386
      8 O         142.2032  145.4251  163.6080 O.2     1  UNL1       -0.2739
      9 N         141.2885  143.0254  163.2148 N.am    1  UNL1       -0.2835
     10 H         140.8959  142.3501  162.6155 H       1  UNL1        0.1549
     11 C         140.4786  145.7650  156.9627 C.ar    1  UNL1        0.0624
     12 C         141.2635  145.1077  155.8664 C.ar    1  UNL1        0.0452
     13 C         142.3300  144.1081  156.2032 C.ar    1  UNL1        0.1414
     14 F         143.1149  143.4507  155.1069 F       1  UNL1       -0.2041
     15 C         142.6116  143.7659  157.6362 C.ar    1  UNL1        0.0307
     16 C         141.8267  144.4233  158.7324 C.ar    1  UNL1        0.0155
     17 C         142.1083  144.0811  160.1655 C.2     1  UNL1       -0.0068
     18 C         141.3234  144.7385  161.2618 C.3     1  UNL1        0.1768
     19 C         140.2569  145.7380  160.9250 C.2     1  UNL1        0.2581
     20 O         139.4720  146.3954  162.0213 O.2     1  UNL1       -0.2721
     21 N         139.9753  146.0802  159.4920 N.am    1  UNL1       -0.1773
     22 C         140.7602  145.4228  158.3957 C.ar    1  UNL1        0.0862
     23 C         138.9772  146.9464  155.2019 C.3     1  UNL1        0.1086
     24 N         139.4121  146.7646  156.6259 N.pl3   1  UNL1       -0.3302
     25 H         138.9975  147.3014  157.3395 H       1  UNL1        0.1469
     26 C         142.4149  141.6569  168.9469 C.3     1  UNL1        0.1636
     27 O         143.6106  142.2436  169.6371 O.3     1  UNL1       -0.3772
     28 H         144.4206  141.9025  169.2266 H       1  UNL1        0.2109
     29 C         139.0256  142.7629  165.1669 C.3     1  UNL1        0.1004
     30 N         138.3462  141.7231  164.3260 N.3     1  UNL1       -0.2681
     31 C         138.6019  140.2674  164.5816 C.3     1  UNL1        0.0579
     32 C         139.3596  139.4511  163.5767 C.3     1  UNL1        0.0160
     33 C         139.6153  137.9954  163.8323 C.3     1  UNL1        0.0014
     34 C         139.1134  137.3558  165.0929 C.3     1  UNL1        0.0001
     35 C         138.3558  138.1719  166.0978 C.3     1  UNL1        0.0014
     36 C         138.1000  139.6278  165.8422 C.3     1  UNL1        0.0160
     37 C         137.4111  142.1390  163.2294 C.3     1  UNL1        0.1044
     38 C         137.7993  143.2431  162.2911 C.3     1  UNL1        0.1544
     39 O         137.3502  144.6487  162.5603 O.3     1  UNL1       -0.3805
     40 H         136.3848  144.7005  162.4813 H       1  UNL1        0.2105
@<TRIPOS>BOND
     1    23    24    1
     2    24    11    1
     3    11    12   ar
     4    12    13   ar
     5    13    14    1
     6    13    15   ar
     7    15    16   ar
     8    16    17    2
     9    17    18    1
    10    18     7    1
    11     7     8    2
    12     7     9   am
    13     9     1    1
    14     1     2   ar
    15     2     3   ar
    16     3     4   ar
    17     4    26    1
    18    26    27    1
    19     4     5   ar
    20     5     6   ar
    21     6    29    1
    22    29    30    1
    23    30    37    1
    24    37    38    1
    25    38    39    1
    26    30    31    1
    27    31    32    1
    28    32    33    1
    29    33    34    1
    30    34    35    1
    31    35    36    1
    32    18    19    1
    33    19    20    2
    34    19    21    1
    35    21    22    2
    36    22    11   ar
    37    22    16   ar
    38     6     1   ar
    39    36    31    1
    40    24    25    1
    41     9    10    1
    42    27    28    1
    43    39    40    1
@<TRIPOS>MOLECULE
*****
 40 43 0 0 0
SMALL
GASTEIGER

@<TRIPOS>ATOM
      1 C         140.4088  142.2390  166.8138 C.ar    1  UNL1        0.0476
      2 C         140.3497  143.2449  167.9250 C.ar    1  UNL1        0.0141
      3 C         140.4137  142.7898  169.3529 C.ar    1  UNL1       -0.0006
      4 C         140.5368  141.3288  169.6695 C.ar    1  UNL1        0.0068
      5 C         140.5959  140.3229  168.5584 C.ar    1  UNL1       -0.0036
      6 C         140.5319  140.7780  167.1305 C.ar    1  UNL1        0.0071
      7 C         141.6028  143.0745  164.6630 C.2     1  UNL1        0.2386
      8 O         142.9248  142.9996  165.3678 O.2     1  UNL1       -0.2739
      9 N         140.3448  142.6942  165.3860 N.am    1  UNL1       -0.2835
     10 H         139.4772  142.7433  164.9234 H       1  UNL1        0.1549
     11 C         141.3470  144.8952  158.9516 C.ar    1  UNL1        0.0624
     12 C         142.3158  144.3477  157.9458 C.ar    1  UNL1        0.0452
     13 C         143.3486  143.3450  158.3678 C.ar    1  UNL1        0.1414
     14 F         144.3174  142.7975  157.3619 F       1  UNL1       -0.2041
     15 C         143.4125  142.8898  159.7956 C.ar    1  UNL1        0.0307
     16 C         142.4438  143.4373  160.8014 C.ar    1  UNL1        0.0155
     17 C         142.5077  142.9821  162.2293 C.2     1  UNL1       -0.0068
     18 C         141.5389  143.5296  163.2351 C.3     1  UNL1        0.1768
     19 C         140.5062  144.5323  162.8131 C.2     1  UNL1        0.2581
     20 O         139.5374  145.0798  163.8190 O.2     1  UNL1       -0.2721
     21 N         140.4422  144.9875  161.3853 N.am    1  UNL1       -0.1773
     22 C         141.4110  144.4400  160.3794 C.ar    1  UNL1        0.0862
     23 C         140.1308  146.2190  157.0759 C.3     1  UNL1        0.1086
     24 N         140.3143  145.8978  158.5296 N.pl3   1  UNL1       -0.3302
     25 H         139.7569  146.3451  159.2067 H       1  UNL1        0.1469
     26 C         140.6008  140.8736  171.0973 C.3     1  UNL1        0.1636
     27 O         140.7162  141.8823  172.2016 O.3     1  UNL1       -0.3772
     28 H         141.5714  142.3356  172.1373 H       1  UNL1        0.2109
     29 C         140.5911  139.7722  166.0193 C.3     1  UNL1        0.1004
     30 N         139.3465  139.4194  165.2600 N.3     1  UNL1       -0.2681
     31 C         138.9767  140.1892  164.0269 C.3     1  UNL1        0.0579
     32 C         139.8623  140.1384  162.8173 C.3     1  UNL1        0.0160
     33 C         139.4925  140.9082  161.5842 C.3     1  UNL1        0.0014
     34 C         138.2371  141.7288  161.5606 C.3     1  UNL1        0.0001
     35 C         137.3515  141.7796  162.7701 C.3     1  UNL1        0.0014
     36 C         137.7213  141.0097  164.0033 C.3     1  UNL1        0.0160
     37 C         138.4717  138.2968  165.7338 C.3     1  UNL1        0.1044
     38 C         137.7240  138.4235  167.0279 C.3     1  UNL1        0.1544
     39 O         136.6071  137.4736  167.3449 O.3     1  UNL1       -0.3805
     40 H         135.8772  137.6131  166.7214 H       1  UNL1        0.2105
@<TRIPOS>BOND
     1    23    24    1
     2    24    11    1
     3    11    12   ar
     4    12    13   ar
     5    13    14    1
     6    13    15   ar
     7    15    16   ar
     8    16    17    2
     9    17    18    1
    10    18     7    1
    11     7     8    2
    12     7     9   am
    13     9     1    1
    14     1     2   ar
    15     2     3   ar
    16     3     4   ar
    17     4    26    1
    18    26    27    1
    19     4     5   ar
    20     5     6   ar
    21     6    29    1
    22    29    30    1
    23    30    37    1
    24    37    38    1
    25    38    39    1
    26    30    31    1
    27    31    32    1
    28    32    33    1
    29    33    34    1
    30    34    35    1
    31    35    36    1
    32    18    19    1
    33    19    20    2
    34    19    21    1
    35    21    22    2
    36    22    11   ar
    37    22    16   ar
    38     6     1   ar
    39    36    31    1
    40    24    25    1
    41     9    10    1
    42    27    28    1
    43    39    40    1
@<TRIPOS>MOLECULE
*****
 40 43 0 0 0
SMALL
GASTEIGER

@<TRIPOS>ATOM
      1 C         142.0934  142.4531  166.2903 C.ar    1  UNL1        0.0476
      2 C         143.1650  142.2186  167.3134 C.ar    1  UNL1        0.0141
      3 C         142.8093  142.1448  168.7687 C.ar    1  UNL1       -0.0006
      4 C         141.3820  142.3054  169.2010 C.ar    1  UNL1        0.0068
      5 C         140.3103  142.5398  168.1780 C.ar    1  UNL1       -0.0036
      6 C         140.6660  142.6137  166.7226 C.ar    1  UNL1        0.0071
      7 C         142.9808  141.3142  164.1305 C.2     1  UNL1        0.2386
      8 O         143.1568  140.0276  164.8812 O.2     1  UNL1       -0.2739
      9 N         142.4491  142.5269  164.8350 N.am    1  UNL1       -0.2835
     10 H         142.3336  143.3714  164.3423 H       1  UNL1        0.1549
     11 C         144.4039  141.6095  158.3091 C.ar    1  UNL1        0.0624
     12 C         143.9303  140.5434  157.3663 C.ar    1  UNL1        0.0452
     13 C         143.1009  139.4034  157.8787 C.ar    1  UNL1        0.1414
     14 F         142.6273  138.3372  156.9358 F       1  UNL1       -0.2041
     15 C         142.7451  139.3295  159.3340 C.ar    1  UNL1        0.0307
     16 C         143.2188  140.3957  160.2769 C.ar    1  UNL1        0.0155
     17 C         142.8630  140.3219  161.7322 C.2     1  UNL1       -0.0068
     18 C         143.3366  141.3880  162.6751 C.3     1  UNL1        0.1768
     19 C         144.1660  142.5280  162.1627 C.2     1  UNL1        0.2581
     20 O         144.6396  143.5941  163.1056 O.2     1  UNL1       -0.2721
     21 N         144.5218  142.6018  160.7074 N.am    1  UNL1       -0.1773
     22 C         144.0481  141.5356  159.7644 C.ar    1  UNL1        0.0862
     23 C         146.4684  142.4755  156.9909 C.3     1  UNL1        0.1086
     24 N         145.2333  142.7495  157.7967 N.pl3   1  UNL1       -0.3302
     25 H         144.9670  143.6775  157.9893 H       1  UNL1        0.1469
     26 C         141.0262  142.2315  170.6563 C.3     1  UNL1        0.1636
     27 O         142.1059  142.2882  171.6962 O.3     1  UNL1       -0.3772
     28 H         142.6648  141.4986  171.6254 H       1  UNL1        0.2109
     29 C         139.5944  142.8482  165.6996 C.3     1  UNL1        0.1004
     30 N         139.4094  141.8774  164.5712 N.3     1  UNL1       -0.2681
     31 C         139.2065  140.4198  164.8615 C.3     1  UNL1        0.0579
     32 C         139.8906  139.3848  164.0183 C.3     1  UNL1        0.0160
     33 C         139.6877  137.9272  164.3085 C.3     1  UNL1        0.0014
     34 C         138.8008  137.5046  165.4420 C.3     1  UNL1        0.0001
     35 C         138.1167  138.5395  166.2852 C.3     1  UNL1        0.0014
     36 C         138.3196  139.9971  165.9949 C.3     1  UNL1        0.0160
     37 C         139.4273  142.3641  163.1525 C.3     1  UNL1        0.1044
     38 C         138.1438  142.4901  162.3865 C.3     1  UNL1        0.1544
     39 O         137.6192  143.8468  162.0200 O.3     1  UNL1       -0.3805
     40 H         137.3750  144.3276  162.8263 H       1  UNL1        0.2105
@<TRIPOS>BOND
     1    23    24    1
     2    24    11    1
     3    11    12   ar
     4    12    13   ar
     5    13    14    1
     6    13    15   ar
     7    15    16   ar
     8    16    17    2
     9    17    18    1
    10    18     7    1
    11     7     8    2
    12     7     9   am
    13     9     1    1
    14     1     2   ar
    15     2     3   ar
    16     3     4   ar
    17     4    26    1
    18    26    27    1
    19     4     5   ar
    20     5     6   ar
    21     6    29    1
    22    29    30    1
    23    30    37    1
    24    37    38    1
    25    38    39    1
    26    30    31    1
    27    31    32    1
    28    32    33    1
    29    33    34    1
    30    34    35    1
    31    35    36    1
    32    18    19    1
    33    19    20    2
    34    19    21    1
    35    21    22    2
    36    22    11   ar
    37    22    16   ar
    38     6     1   ar
    39    36    31    1
    40    24    25    1
    41     9    10    1
    42    27    28    1
    43    39    40    1
@<TRIPOS>MOLECULE
*****
 40 43 0 0 0
SMALL
GASTEIGER

@<TRIPOS>ATOM
      1 C         142.6139  141.4450  166.4979 C.ar    1  UNL1        0.0476
      2 C         143.0703  142.3967  167.5639 C.ar    1  UNL1        0.0141
      3 C         143.2067  141.9256  168.9814 C.ar    1  UNL1       -0.0006
      4 C         142.8869  140.5029  169.3331 C.ar    1  UNL1        0.0068
      5 C         142.4305  139.5513  168.2672 C.ar    1  UNL1       -0.0036
      6 C         142.2941  140.0223  166.8496 C.ar    1  UNL1        0.0071
      7 C         143.5818  141.6647  164.0970 C.2     1  UNL1        0.2386
      8 O         144.8227  140.9424  164.5311 O.2     1  UNL1       -0.2739
      9 N         142.4774  141.9160  165.0804 N.am    1  UNL1       -0.2835
     10 H         141.6630  142.3901  164.7955 H       1  UNL1        0.1549
     11 C         143.0361  143.5490  158.4267 C.ar    1  UNL1        0.0624
     12 C         143.3320  142.6121  157.2933 C.ar    1  UNL1        0.0452
     13 C         143.7644  141.2041  157.5775 C.ar    1  UNL1        0.1414
     14 F         144.0603  140.2672  156.4440 F       1  UNL1       -0.2041
     15 C         143.9008  140.7331  158.9950 C.ar    1  UNL1        0.0307
     16 C         143.6049  141.6700  160.1284 C.ar    1  UNL1        0.0155
     17 C         143.7413  141.1989  161.5460 C.2     1  UNL1       -0.0068
     18 C         143.4454  142.1358  162.6794 C.3     1  UNL1        0.1768
     19 C         143.0130  143.5437  162.3952 C.2     1  UNL1        0.2581
     20 O         142.7171  144.4806  163.5287 O.2     1  UNL1       -0.2721
     21 N         142.8766  144.0148  160.9777 N.am    1  UNL1       -0.1773
     22 C         143.1725  143.0779  159.8442 C.ar    1  UNL1        0.0862
     23 C         141.1443  145.2862  158.0357 C.3     1  UNL1        0.1086
     24 N         142.6037  144.9569  158.1426 N.pl3   1  UNL1       -0.3302
     25 H         143.2779  145.6649  158.0262 H       1  UNL1        0.1469
     26 C         143.0234  140.0319  170.7506 C.3     1  UNL1        0.1636
     27 O         142.2100  140.6732  171.8357 O.3     1  UNL1       -0.3772
     28 H         142.4865  141.5966  171.9442 H       1  UNL1        0.2109
     29 C         141.8377  139.0707  165.7838 C.3     1  UNL1        0.1004
     30 N         140.6488  139.4100  164.9344 N.3     1  UNL1       -0.2681
     31 C         140.7346  139.2896  163.4417 C.3     1  UNL1        0.0579
     32 C         141.4601  138.1315  162.8231 C.3     1  UNL1        0.0160
     33 C         141.5459  138.0111  161.3304 C.3     1  UNL1        0.0014
     34 C         140.9063  139.0488  160.4563 C.3     1  UNL1        0.0001
     35 C         140.1809  140.2069  161.0748 C.3     1  UNL1        0.0014
     36 C         140.0950  140.3273  162.5676 C.3     1  UNL1        0.0160
     37 C         139.3741  139.8696  165.5776 C.3     1  UNL1        0.1044
     38 C         138.4604  138.8733  166.2276 C.3     1  UNL1        0.1544
     39 O         138.2346  138.9182  167.7099 O.3     1  UNL1       -0.3805
     40 H         139.0615  138.7041  168.1695 H       1  UNL1        0.2105
@<TRIPOS>BOND
     1    23    24    1
     2    24    11    1
     3    11    12   ar
     4    12    13   ar
     5    13    14    1
     6    13    15   ar
     7    15    16   ar
     8    16    17    2
     9    17    18    1
    10    18     7    1
    11     7     8    2
    12     7     9   am
    13     9     1    1
    14     1     2   ar
    15     2     3   ar
    16     3     4   ar
    17     4    26    1
    18    26    27    1
    19     4     5   ar
    20     5     6   ar
    21     6    29    1
    22    29    30    1
    23    30    37    1
    24    37    38    1
    25    38    39    1
    26    30    31    1
    27    31    32    1
    28    32    33    1
    29    33    34    1
    30    34    35    1
    31    35    36    1
    32    18    19    1
    33    19    20    2
    34    19    21    1
    35    21    22    2
    36    22    11   ar
    37    22    16   ar
    38     6     1   ar
    39    36    31    1
    40    24    25    1
    41     9    10    1
    42    27    28    1
    43    39    40    1
@<TRIPOS>MOLECULE
*****
 40 43 0 0 0
SMALL
GASTEIGER

@<TRIPOS>ATOM
      1 C         141.7077  139.8547  166.5560 C.ar    1  UNL1        0.0476
      2 C         142.7730  139.5300  167.5610 C.ar    1  UNL1        0.0141
      3 C         142.5397  139.8058  169.0168 C.ar    1  UNL1       -0.0006
      4 C         141.2412  140.4062  169.4678 C.ar    1  UNL1        0.0068
      5 C         140.1760  140.7309  168.4629 C.ar    1  UNL1       -0.0036
      6 C         140.4092  140.4551  167.0070 C.ar    1  UNL1        0.0071
      7 C         142.3705  140.6879  164.1862 C.2     1  UNL1        0.2386
      8 O         142.5667  142.0728  164.7281 O.2     1  UNL1       -0.2739
      9 N         141.9409  139.5789  165.1002 N.am    1  UNL1       -0.2835
     10 H         141.8121  138.6699  164.7446 H       1  UNL1        0.1549
     11 C         143.3036  139.5850  158.3627 C.ar    1  UNL1        0.0624
     12 C         142.2733  138.8413  157.5658 C.ar    1  UNL1        0.0452
     13 C         141.0096  138.3732  158.2246 C.ar    1  UNL1        0.1414
     14 F         139.9792  137.6295  157.4276 F       1  UNL1       -0.2041
     15 C         140.7763  138.6490  159.6805 C.ar    1  UNL1        0.0307
     16 C         141.8067  139.3927  160.4774 C.ar    1  UNL1        0.0155
     17 C         141.5734  139.6685  161.9334 C.2     1  UNL1       -0.0068
     18 C         142.6037  140.4122  162.7303 C.3     1  UNL1        0.1768
     19 C         143.8674  140.8802  162.0714 C.2     1  UNL1        0.2581
     20 O         144.8978  141.6240  162.8685 O.2     1  UNL1       -0.2721
     21 N         144.1007  140.6045  160.6156 N.am    1  UNL1       -0.1773
     22 C         143.0703  139.8607  159.8186 C.ar    1  UNL1        0.0862
     23 C         144.5329  141.2149  156.7558 C.3     1  UNL1        0.1086
     24 N         144.5673  140.0530  157.7038 N.pl3   1  UNL1       -0.3302
     25 H         145.4192  139.5976  157.8936 H       1  UNL1        0.1469
     26 C         141.0080  140.6820  170.9236 C.3     1  UNL1        0.1636
     27 O         142.1530  140.6236  171.8909 O.3     1  UNL1       -0.3772
     28 H         142.4812  139.7126  171.9488 H       1  UNL1        0.2109
     29 C         139.3439  140.7797  166.0021 C.3     1  UNL1        0.1004
     30 N         138.7095  139.6821  165.2005 N.3     1  UNL1       -0.2681
     31 C         138.3728  139.9067  163.7561 C.3     1  UNL1        0.0579
     32 C         138.2793  141.3030  163.2161 C.3     1  UNL1        0.0160
     33 C         137.9425  141.5276  161.7718 C.3     1  UNL1        0.0014
     34 C         137.6992  140.3559  160.8674 C.3     1  UNL1        0.0001
     35 C         137.7926  138.9596  161.4074 C.3     1  UNL1        0.0014
     36 C         138.1294  138.7350  162.8518 C.3     1  UNL1        0.0160
     37 C         138.4119  138.3598  165.8431 C.3     1  UNL1        0.1044
     38 C         137.5246  138.2957  167.0508 C.3     1  UNL1        0.1544
     39 O         137.0010  136.9732  167.5274 O.3     1  UNL1       -0.3805
     40 H         136.3974  136.6060  166.8628 H       1  UNL1        0.2105
@<TRIPOS>BOND
     1    23    24    1
     2    24    11    1
     3    11    12   ar
     4    12    13   ar
     5    13    14    1
     6    13    15   ar
     7    15    16   ar
     8    16    17    2
     9    17    18    1
    10    18     7    1
    11     7     8    2
    12     7     9   am
    13     9     1    1
    14     1     2   ar
    15     2     3   ar
    16     3     4   ar
    17     4    26    1
    18    26    27    1
    19     4     5   ar
    20     5     6   ar
    21     6    29    1
    22    29    30    1
    23    30    37    1
    24    37    38    1
    25    38    39    1
    26    30    31    1
    27    31    32    1
    28    32    33    1
    29    33    34    1
    30    34    35    1
    31    35    36    1
    32    18    19    1
    33    19    20    2
    34    19    21    1
    35    21    22    2
    36    22    11   ar
    37    22    16   ar
    38     6     1   ar
    39    36    31    1
    40    24    25    1
    41     9    10    1
    42    27    28    1
    43    39    40    1
@<TRIPOS>MOLECULE
*****
 40 43 0 0 0
SMALL
GASTEIGER

@<TRIPOS>ATOM
      1 C         142.1893  138.8837  160.9744 C.ar    1  UNL1        0.0476
      2 C         142.9081  137.6370  160.5510 C.ar    1  UNL1        0.0141
      3 C         142.8199  137.1666  159.1294 C.ar    1  UNL1       -0.0006
      4 C         142.0130  137.9428  158.1312 C.ar    1  UNL1        0.0068
      5 C         141.2942  139.1894  158.5546 C.ar    1  UNL1       -0.0036
      6 C         141.3824  139.6599  159.9762 C.ar    1  UNL1        0.0071
      7 C         141.5617  138.6040  163.4799 C.2     1  UNL1        0.2386
      8 O         140.7578  137.3834  163.1423 O.2     1  UNL1       -0.2739
      9 N         142.2774  139.3541  162.3960 N.am    1  UNL1       -0.2835
     10 H         142.8050  140.1552  162.6176 H       1  UNL1        0.1549
     11 C         141.9143  140.4856  169.1664 C.ar    1  UNL1        0.0624
     12 C         140.6655  140.6491  169.9810 C.ar    1  UNL1        0.0452
     13 C         139.3285  140.3422  169.3741 C.ar    1  UNL1        0.1414
     14 F         138.0797  140.5057  170.1889 F       1  UNL1       -0.2041
     15 C         139.2404  139.8718  167.9525 C.ar    1  UNL1        0.0307
     16 C         140.4892  139.7083  167.1379 C.ar    1  UNL1        0.0155
     17 C         140.4010  139.2379  165.7162 C.2     1  UNL1       -0.0068
     18 C         141.6498  139.0744  164.9016 C.3     1  UNL1        0.1768
     19 C         142.9868  139.3813  165.5085 C.2     1  UNL1        0.2581
     20 O         144.2357  139.2178  164.6937 O.2     1  UNL1       -0.2721
     21 N         143.0750  139.8517  166.9300 N.am    1  UNL1       -0.1773
     22 C         141.8261  140.0152  167.7448 C.ar    1  UNL1        0.0862
     23 C         143.7774  142.1970  169.7576 C.3     1  UNL1        0.1086
     24 N         143.2513  140.7925  169.7733 N.pl3   1  UNL1       -0.3302
     25 H         143.7834  140.0720  170.1819 H       1  UNL1        0.1469
     26 C         141.9249  137.4724  156.7097 C.3     1  UNL1        0.1636
     27 O         141.2257  136.1849  156.3877 O.3     1  UNL1       -0.3772
     28 H         141.7186  135.4440  156.7735 H       1  UNL1        0.2109
     29 C         140.6636  140.9065  160.3996 C.3     1  UNL1        0.1004
     30 N         139.4570  140.8123  161.2858 N.3     1  UNL1       -0.2681
     31 C         139.4471  141.5064  162.6155 C.3     1  UNL1        0.0579
     32 C         138.2250  141.4470  163.4834 C.3     1  UNL1        0.0160
     33 C         138.2151  142.1410  164.8131 C.3     1  UNL1        0.0014
     34 C         139.4271  142.8945  165.2749 C.3     1  UNL1        0.0001
     35 C         140.6491  142.9540  164.4071 C.3     1  UNL1        0.0014
     36 C         140.6591  142.2599  163.0773 C.3     1  UNL1        0.0160
     37 C         138.2604  140.0240  160.8423 C.3     1  UNL1        0.1044
     38 C         138.0222  138.6490  161.3923 C.3     1  UNL1        0.1544
     39 O         138.9694  137.5341  161.0608 O.3     1  UNL1       -0.3805
     40 H         138.9207  137.3400  160.1117 H       1  UNL1        0.2105
@<TRIPOS>BOND
     1    23    24    1
     2    24    11    1
     3    11    12   ar
     4    12    13   ar
     5    13    14    1
     6    13    15   ar
     7    15    16   ar
     8    16    17    2
     9    17    18    1
    10    18     7    1
    11     7     8    2
    12     7     9   am
    13     9     1    1
    14     1     2   ar
    15     2     3   ar
    16     3     4   ar
    17     4    26    1
    18    26    27    1
    19     4     5   ar
    20     5     6   ar
    21     6    29    1
    22    29    30    1
    23    30    37    1
    24    37    38    1
    25    38    39    1
    26    30    31    1
    27    31    32    1
    28    32    33    1
    29    33    34    1
    30    34    35    1
    31    35    36    1
    32    18    19    1
    33    19    20    2
    34    19    21    1
    35    21    22    2
    36    22    11   ar
    37    22    16   ar
    38     6     1   ar
    39    36    31    1
    40    24    25    1
    41     9    10    1
    42    27    28    1
    43    39    40    1
@<TRIPOS>MOLECULE
*****
 40 43 0 0 0
SMALL
GASTEIGER

@<TRIPOS>ATOM
      1 C         142.1808  142.3811  166.4562 C.ar    1  UNL1        0.0476
      2 C         143.2564  141.9851  167.4240 C.ar    1  UNL1        0.0141
      3 C         142.9085  141.6928  168.8535 C.ar    1  UNL1       -0.0006
      4 C         141.4851  141.7965  169.3153 C.ar    1  UNL1        0.0068
      5 C         140.4096  142.1925  168.3476 C.ar    1  UNL1       -0.0036
      6 C         140.7575  142.4848  166.9180 C.ar    1  UNL1        0.0071
      7 C         143.0959  141.5913  164.1565 C.2     1  UNL1        0.2386
      8 O         143.3151  140.2169  164.7158 O.2     1  UNL1       -0.2739
      9 N         142.5287  142.6735  165.0267 N.am    1  UNL1       -0.2835
     10 H         142.3848  143.5756  164.6596 H       1  UNL1        0.1549
     11 C         144.4875  142.7604  158.4384 C.ar    1  UNL1        0.0624
     12 C         143.3989  143.0174  157.4390 C.ar    1  UNL1        0.0452
     13 C         141.9623  142.9821  157.8692 C.ar    1  UNL1        0.1414
     14 F         140.8736  143.2391  156.8697 F       1  UNL1       -0.2041
     15 C         141.6144  142.6898  159.2986 C.ar    1  UNL1        0.0307
     16 C         142.7030  142.4329  160.2980 C.ar    1  UNL1        0.0155
     17 C         142.3551  142.1406  161.7276 C.2     1  UNL1       -0.0068
     18 C         143.4438  141.8836  162.7269 C.3     1  UNL1        0.1768
     19 C         144.8803  141.9189  162.2968 C.2     1  UNL1        0.2581
     20 O         145.9690  141.6619  163.2963 O.2     1  UNL1       -0.2721
     21 N         145.2283  142.2112  160.8673 N.am    1  UNL1       -0.1773
     22 C         144.1396  142.4682  159.8679 C.ar    1  UNL1        0.0862
     23 C         146.3189  142.2528  156.6669 C.3     1  UNL1        0.1086
     24 N         145.9241  142.7957  158.0083 N.pl3   1  UNL1       -0.3302
     25 H         146.6078  143.1752  158.6064 H       1  UNL1        0.1469
     26 C         141.1373  141.5042  170.7448 C.3     1  UNL1        0.1636
     27 O         142.1665  140.9114  171.6610 O.3     1  UNL1       -0.3772
     28 H         142.3885  140.0159  171.3616 H       1  UNL1        0.2109
     29 C         139.6820  142.8808  165.9504 C.3     1  UNL1        0.1004
     30 N         139.3566  141.9929  164.7860 N.3     1  UNL1       -0.2681
     31 C         139.2136  140.5135  164.9880 C.3     1  UNL1        0.0579
     32 C         139.9991  139.5608  164.1362 C.3     1  UNL1        0.0160
     33 C         139.8561  138.0814  164.3382 C.3     1  UNL1        0.0014
     34 C         138.9277  137.5545  165.3920 C.3     1  UNL1        0.0001
     35 C         138.1422  138.5071  166.2438 C.3     1  UNL1        0.0014
     36 C         138.2852  139.9866  166.0418 C.3     1  UNL1        0.0160
     37 C         139.1742  142.5843  163.4197 C.3     1  UNL1        0.1044
     38 C         137.8565  142.4527  162.7153 C.3     1  UNL1        0.1544
     39 O         137.5667  143.2888  161.5040 O.3     1  UNL1       -0.3805
     40 H         137.5216  144.2234  161.7595 H       1  UNL1        0.2105
@<TRIPOS>BOND
     1    23    24    1
     2    24    11    1
     3    11    12   ar
     4    12    13   ar
     5    13    14    1
     6    13    15   ar
     7    15    16   ar
     8    16    17    2
     9    17    18    1
    10    18     7    1
    11     7     8    2
    12     7     9   am
    13     9     1    1
    14     1     2   ar
    15     2     3   ar
    16     3     4   ar
    17     4    26    1
    18    26    27    1
    19     4     5   ar
    20     5     6   ar
    21     6    29    1
    22    29    30    1
    23    30    37    1
    24    37    38    1
    25    38    39    1
    26    30    31    1
    27    31    32    1
    28    32    33    1
    29    33    34    1
    30    34    35    1
    31    35    36    1
    32    18    19    1
    33    19    20    2
    34    19    21    1
    35    21    22    2
    36    22    11   ar
    37    22    16   ar
    38     6     1   ar
    39    36    31    1
    40    24    25    1
    41     9    10    1
    42    27    28    1
    43    39    40    1
