@<TRIPOS>MOLECULE
*****
 39 42 0 0 0
SMALL
GASTEIGER

@<TRIPOS>ATOM
      1 C         138.9451  140.1120  161.7057 C.ar    1  UNL1        0.0664
      2 C         139.1959  139.0510  162.7358 C.ar    1  UNL1        0.0417
      3 C         139.6331  137.6424  162.4624 C.3     1  UNL1        0.0502
      4 N         138.9327  139.6458  164.0874 N.ar    1  UNL1       -0.3323
      5 C         138.5193  141.0745  163.8927 C.ar    1  UNL1        0.0597
      6 C         138.1368  142.1502  164.8655 C.ar    1  UNL1        0.0172
      7 C         137.7621  143.5142  164.3663 C.ar    1  UNL1        0.0015
      8 C         137.7698  143.8023  162.8942 C.ar    1  UNL1        0.0001
      9 C         138.1522  142.7266  161.9214 C.ar    1  UNL1        0.0016
     10 C         138.5270  141.3626  162.4206 C.ar    1  UNL1        0.0212
     11 N         140.4519  139.8975  159.6000 N.am    1  UNL1       -0.2966
     12 C         139.0875  139.9508  160.2212 C.2     1  UNL1        0.2472
     13 O         137.8658  139.8430  159.3578 O.2     1  UNL1       -0.2701
     14 H         141.2539  139.9682  160.1666 H       1  UNL1        0.1501
     15 C         140.5943  139.7363  158.1155 C.3     1  UNL1        0.1245
     16 C         142.3920  137.8748  157.8842 C.ar    1  UNL1        0.1420
     17 C         142.8356  136.5613  157.3116 C.ar    1  UNL1        0.0494
     18 C         141.9252  135.7957  156.3977 C.ar    1  UNL1        0.0394
     19 C         142.3689  134.4822  155.8252 C.3     1  UNL1        0.0500
     20 N         140.5712  136.3436  156.0565 N.ar    1  UNL1       -0.3245
     21 C         140.1276  137.6572  156.6291 C.ar    1  UNL1        0.2579
     22 O         138.7736  138.2052  156.2879 O.2     1  UNL1       -0.2674
     23 C         141.0380  138.4228  157.5429 C.ar    1  UNL1        0.0872
     24 H         139.9737  135.8412  155.4567 H       1  UNL1        0.1686
     25 C         143.4283  138.2409  160.2384 C.3     1  UNL1        0.2525
     26 O         143.3024  138.6404  158.7980 O.3     1  UNL1       -0.4715
     27 C         139.0605  138.9365  165.4030 C.3     1  UNL1        0.0853
     28 C         138.2052  137.7394  165.6958 C.3     1  UNL1        0.0245
     29 C         140.0434  139.4241  166.4256 C.3     1  UNL1        0.0235
     30 C         139.5625  139.8749  167.7731 C.3     1  UNL1        0.0192
     31 C         140.5455  140.3625  168.7957 C.3     1  UNL1        0.0724
     32 N         142.0094  140.3995  168.4711 N.3     1  UNL1       -0.2656
     33 C         142.4904  139.9487  167.1237 C.3     1  UNL1        0.0724
     34 C         141.5074  139.4611  166.1010 C.3     1  UNL1        0.0192
     35 C         142.9924  140.8871  169.4938 C.3     1  UNL1        0.1767
     36 C         142.9139  142.2982  169.9965 C.3     1  UNL1        0.4121
     37 F         142.8353  143.7091  170.4993 F       1  UNL1       -0.1685
     38 F         143.6538  142.7724  168.7810 F       1  UNL1       -0.1685
     39 F         142.1738  141.8238  171.2120 F       1  UNL1       -0.1685
@<TRIPOS>BOND
     1    25    26    1
     2    26    16    1
     3    16    17   ar
     4    17    18   ar
     5    18    19    1
     6    18    20   ar
     7    20    21   ar
     8    21    22    2
     9    21    23   ar
    10    23    15    1
    11    15    11    1
    12    11    12   am
    13    12    13    2
    14    12     1    1
    15     1     2   ar
    16     2     3    1
    17     2     4   ar
    18     4    27    1
    19    27    28    1
    20    27    29    1
    21    29    30    1
    22    30    31    1
    23    31    32    1
    24    32    35    1
    25    35    36    1
    26    36    37    1
    27    36    38    1
    28    36    39    1
    29    32    33    1
    30    33    34    1
    31     4     5   ar
    32     5     6   ar
    33     6     7   ar
    34     7     8   ar
    35     8     9   ar
    36     9    10   ar
    37    23    16   ar
    38    10     1   ar
    39    34    29    1
    40    10     5   ar
    41    20    24    1
    42    11    14    1
@<TRIPOS>MOLECULE
*****
 39 42 0 0 0
SMALL
GASTEIGER

@<TRIPOS>ATOM
      1 C         138.4402  140.1193  162.1807 C.ar    1  UNL1        0.0664
      2 C         138.6371  139.1155  163.2779 C.ar    1  UNL1        0.0417
      3 C         138.8839  137.6472  163.0958 C.3     1  UNL1        0.0502
      4 N         138.5440  139.8380  164.5891 N.ar    1  UNL1       -0.3323
      5 C         138.2895  141.2882  164.3024 C.ar    1  UNL1        0.0597
      6 C         138.1078  142.4728  165.2043 C.ar    1  UNL1        0.0172
      7 C         137.8621  143.8313  164.6178 C.ar    1  UNL1        0.0015
      8 C         137.7979  144.0051  163.1293 C.ar    1  UNL1        0.0001
      9 C         137.9796  142.8205  162.2273 C.ar    1  UNL1        0.0016
     10 C         138.2253  141.4620  162.8139 C.ar    1  UNL1        0.0212
     11 N         139.7618  139.7158  159.9805 N.am    1  UNL1       -0.2966
     12 C         138.4554  139.8309  160.7088 C.2     1  UNL1        0.2472
     13 O         137.1645  139.6576  159.9650 O.2     1  UNL1       -0.2701
     14 H         140.6092  139.8295  160.4687 H       1  UNL1        0.1501
     15 C         139.7771  139.4274  158.5086 C.3     1  UNL1        0.1245
     16 C         140.2979  137.5269  156.8155 C.ar    1  UNL1        0.1420
     17 C         141.2452  136.5042  156.2615 C.ar    1  UNL1        0.0494
     18 C         142.6188  136.3594  156.8466 C.ar    1  UNL1        0.0394
     19 C         143.5659  135.3367  156.2925 C.3     1  UNL1        0.0500
     20 N         143.0451  137.2373  157.9856 N.ar    1  UNL1       -0.3245
     21 C         142.0978  138.2600  158.5397 C.ar    1  UNL1        0.2579
     22 O         142.5242  139.1379  159.6787 O.2     1  UNL1       -0.2674
     23 C         140.7243  138.4047  157.9546 C.ar    1  UNL1        0.0872
     24 H         143.9466  137.1422  158.3697 H       1  UNL1        0.1686
     25 C         138.6574  137.2246  154.8236 C.3     1  UNL1        0.2525
     26 O         138.9243  137.6716  156.2304 O.3     1  UNL1       -0.4715
     27 C         138.6812  139.2189  165.9485 C.3     1  UNL1        0.0853
     28 C         137.7161  138.1592  166.3910 C.3     1  UNL1        0.0245
     29 C         139.7834  139.6595  166.8655 C.3     1  UNL1        0.0235
     30 C         139.4702  140.0583  168.2772 C.3     1  UNL1        0.0192
     31 C         140.5725  140.4989  169.1942 C.3     1  UNL1        0.0724
     32 N         141.9879  140.5408  168.6995 N.3     1  UNL1       -0.2656
     33 C         142.3012  140.1420  167.2878 C.3     1  UNL1        0.0724
     34 C         141.1989  139.7014  166.3708 C.3     1  UNL1        0.0192
     35 C         143.0902  140.9814  169.6165 C.3     1  UNL1        0.1767
     36 C         143.1081  142.3840  170.1479 C.3     1  UNL1        0.4121
     37 F         143.1260  143.7865  170.6793 F       1  UNL1       -0.1685
     38 F         143.8922  142.8283  168.9488 F       1  UNL1       -0.1685
     39 F         142.3240  141.9396  171.3470 F       1  UNL1       -0.1685
@<TRIPOS>BOND
     1    25    26    1
     2    26    16    1
     3    16    17   ar
     4    17    18   ar
     5    18    19    1
     6    18    20   ar
     7    20    21   ar
     8    21    22    2
     9    21    23   ar
    10    23    15    1
    11    15    11    1
    12    11    12   am
    13    12    13    2
    14    12     1    1
    15     1     2   ar
    16     2     3    1
    17     2     4   ar
    18     4    27    1
    19    27    28    1
    20    27    29    1
    21    29    30    1
    22    30    31    1
    23    31    32    1
    24    32    35    1
    25    35    36    1
    26    36    37    1
    27    36    38    1
    28    36    39    1
    29    32    33    1
    30    33    34    1
    31     4     5   ar
    32     5     6   ar
    33     6     7   ar
    34     7     8   ar
    35     8     9   ar
    36     9    10   ar
    37    23    16   ar
    38    10     1   ar
    39    34    29    1
    40    10     5   ar
    41    20    24    1
    42    11    14    1
@<TRIPOS>MOLECULE
*****
 39 42 0 0 0
SMALL
GASTEIGER

@<TRIPOS>ATOM
      1 C         139.8634  139.2890  162.7567 C.ar    1  UNL1        0.0664
      2 C         139.8087  138.6793  164.1262 C.ar    1  UNL1        0.0417
      3 C         140.4086  137.3655  164.5310 C.3     1  UNL1        0.0502
      4 N         139.0487  139.6143  165.0197 N.ar    1  UNL1       -0.3323
      5 C         138.6338  140.8017  164.2025 C.ar    1  UNL1        0.0597
      6 C         137.8625  142.0400  164.5512 C.ar    1  UNL1        0.0172
      7 C         137.5947  143.0773  163.5013 C.ar    1  UNL1        0.0015
      8 C         138.0982  142.8762  162.1027 C.ar    1  UNL1        0.0001
      9 C         138.8695  141.6379  161.7540 C.ar    1  UNL1        0.0016
     10 C         139.1373  140.6007  162.8039 C.ar    1  UNL1        0.0212
     11 N         142.0072  138.4440  161.5564 N.am    1  UNL1       -0.2966
     12 C         140.5277  138.6918  161.5517 C.2     1  UNL1        0.2472
     13 O         139.7127  138.3424  160.3420 O.2     1  UNL1       -0.2701
     14 H         142.5422  138.6734  162.3504 H       1  UNL1        0.1501
     15 C         142.6714  137.8469  160.3513 C.3     1  UNL1        0.1245
     16 C         142.7851  138.3078  157.7970 C.ar    1  UNL1        0.1420
     17 C         143.1933  139.1875  156.6527 C.ar    1  UNL1        0.0494
     18 C         143.8960  140.4859  156.9182 C.ar    1  UNL1        0.0394
     19 C         144.3042  141.3655  155.7739 C.3     1  UNL1        0.0500
     20 N         144.1904  140.9046  158.3282 N.ar    1  UNL1       -0.3245
     21 C         143.7822  140.0248  159.4726 C.ar    1  UNL1        0.2579
     22 O         144.0767  140.4435  160.8826 O.2     1  UNL1       -0.2674
     23 C         143.0796  138.7265  159.2070 C.ar    1  UNL1        0.0872
     24 H         144.6516  141.7567  158.5025 H       1  UNL1        0.1686
     25 C         142.8041  135.8954  156.8327 C.3     1  UNL1        0.2525
     26 O         142.0825  137.0095  157.5314 O.3     1  UNL1       -0.4715
     27 C         138.7552  139.3995  166.4749 C.3     1  UNL1        0.0853
     28 C         137.6433  138.4813  166.8882 C.3     1  UNL1        0.0245
     29 C         139.5735  140.1028  167.5168 C.3     1  UNL1        0.0235
     30 C         140.7515  140.9368  167.1086 C.3     1  UNL1        0.0192
     31 C         141.5697  141.6401  168.1506 C.3     1  UNL1        0.0724
     32 N         141.2100  141.5095  169.6009 N.3     1  UNL1       -0.2656
     33 C         140.0319  140.6755  170.0093 C.3     1  UNL1        0.0724
     34 C         139.2137  139.9722  168.9673 C.3     1  UNL1        0.0192
     35 C         142.0282  142.2128  170.6429 C.3     1  UNL1        0.1767
     36 C         143.4762  142.5082  170.3862 C.3     1  UNL1        0.4121
     37 F         144.9242  142.8037  170.1294 F       1  UNL1       -0.1685
     38 F         143.7106  141.0658  170.0479 F       1  UNL1       -0.1685
     39 F         143.2418  143.9507  170.7245 F       1  UNL1       -0.1685
@<TRIPOS>BOND
     1    25    26    1
     2    26    16    1
     3    16    17   ar
     4    17    18   ar
     5    18    19    1
     6    18    20   ar
     7    20    21   ar
     8    21    22    2
     9    21    23   ar
    10    23    15    1
    11    15    11    1
    12    11    12   am
    13    12    13    2
    14    12     1    1
    15     1     2   ar
    16     2     3    1
    17     2     4   ar
    18     4    27    1
    19    27    28    1
    20    27    29    1
    21    29    30    1
    22    30    31    1
    23    31    32    1
    24    32    35    1
    25    35    36    1
    26    36    37    1
    27    36    38    1
    28    36    39    1
    29    32    33    1
    30    33    34    1
    31     4     5   ar
    32     5     6   ar
    33     6     7   ar
    34     7     8   ar
    35     8     9   ar
    36     9    10   ar
    37    23    16   ar
    38    10     1   ar
    39    34    29    1
    40    10     5   ar
    41    20    24    1
    42    11    14    1
@<TRIPOS>MOLECULE
*****
 39 42 0 0 0
SMALL
GASTEIGER

@<TRIPOS>ATOM
      1 C         139.5338  140.0592  161.9576 C.ar    1  UNL1        0.0664
      2 C         139.6921  139.0846  163.0868 C.ar    1  UNL1        0.0417
      3 C         140.2661  137.7026  162.9847 C.3     1  UNL1        0.0502
      4 N         139.1754  139.7347  164.3360 N.ar    1  UNL1       -0.3323
      5 C         138.6979  141.1111  163.9788 C.ar    1  UNL1        0.0597
      6 C         138.0901  142.2077  164.8022 C.ar    1  UNL1        0.0172
      7 C         137.7037  143.5048  164.1556 C.ar    1  UNL1        0.0015
      8 C         137.9252  143.7054  162.6857 C.ar    1  UNL1        0.0001
      9 C         138.5331  142.6088  161.8623 C.ar    1  UNL1        0.0016
     10 C         138.9194  141.3117  162.5089 C.ar    1  UNL1        0.0212
     11 N         141.2322  140.3390  160.0114 N.am    1  UNL1       -0.2966
     12 C         139.9219  139.8229  160.5281 C.2     1  UNL1        0.2472
     13 O         138.9998  139.0706  159.6151 O.2     1  UNL1       -0.2701
     14 H         141.8375  140.8328  160.6106 H       1  UNL1        0.1501
     15 C         141.6202  140.1027  158.5819 C.3     1  UNL1        0.1245
     16 C         143.2582  142.0878  158.2260 C.ar    1  UNL1        0.1420
     17 C         144.5598  142.6204  157.7043 C.ar    1  UNL1        0.0494
     18 C         145.5251  141.7007  157.0169 C.ar    1  UNL1        0.0394
     19 C         146.8266  142.2334  156.4953 C.3     1  UNL1        0.0500
     20 N         145.1887  140.2483  156.8512 N.ar    1  UNL1       -0.3245
     21 C         143.8870  139.7157  157.3729 C.ar    1  UNL1        0.2579
     22 O         143.5506  138.2633  157.2072 O.2     1  UNL1       -0.2674
     23 C         142.9218  140.6354  158.0603 C.ar    1  UNL1        0.0872
     24 H         145.8222  139.6447  156.4000 H       1  UNL1        0.1686
     25 C         142.6217  143.5639  160.2670 C.3     1  UNL1        0.2525
     26 O         142.2930  143.0075  158.9134 O.3     1  UNL1       -0.4715
     27 C         139.1421  139.1169  165.7024 C.3     1  UNL1        0.0853
     28 C         138.1313  138.0554  166.0212 C.3     1  UNL1        0.0245
     29 C         140.1196  139.5605  166.7501 C.3     1  UNL1        0.0235
     30 C         141.5849  139.6147  166.4340 C.3     1  UNL1        0.0192
     31 C         142.5623  140.0583  167.4818 C.3     1  UNL1        0.0724
     32 N         142.0745  140.4478  168.8457 N.3     1  UNL1       -0.2656
     33 C         140.6091  140.3936  169.1619 C.3     1  UNL1        0.0724
     34 C         139.6317  139.9500  168.1141 C.3     1  UNL1        0.0192
     35 C         143.0519  140.8914  169.8935 C.3     1  UNL1        0.1767
     36 C         143.0990  142.3305  170.3140 C.3     1  UNL1        0.4121
     37 F         143.1461  143.7695  170.7344 F       1  UNL1       -0.1685
     38 F         142.1150  142.0428  171.4090 F       1  UNL1       -0.1685
     39 F         144.0830  142.6181  169.2189 F       1  UNL1       -0.1685
@<TRIPOS>BOND
     1    25    26    1
     2    26    16    1
     3    16    17   ar
     4    17    18   ar
     5    18    19    1
     6    18    20   ar
     7    20    21   ar
     8    21    22    2
     9    21    23   ar
    10    23    15    1
    11    15    11    1
    12    11    12   am
    13    12    13    2
    14    12     1    1
    15     1     2   ar
    16     2     3    1
    17     2     4   ar
    18     4    27    1
    19    27    28    1
    20    27    29    1
    21    29    30    1
    22    30    31    1
    23    31    32    1
    24    32    35    1
    25    35    36    1
    26    36    37    1
    27    36    38    1
    28    36    39    1
    29    32    33    1
    30    33    34    1
    31     4     5   ar
    32     5     6   ar
    33     6     7   ar
    34     7     8   ar
    35     8     9   ar
    36     9    10   ar
    37    23    16   ar
    38    10     1   ar
    39    34    29    1
    40    10     5   ar
    41    20    24    1
    42    11    14    1
@<TRIPOS>MOLECULE
*****
 39 42 0 0 0
SMALL
GASTEIGER

@<TRIPOS>ATOM
      1 C         141.7638  139.2800  161.4325 C.ar    1  UNL1        0.0664
      2 C         142.9680  139.6387  162.2519 C.ar    1  UNL1        0.0417
      3 C         144.2312  140.2621  161.7367 C.3     1  UNL1        0.0502
      4 N         142.6870  139.2645  163.6770 N.ar    1  UNL1       -0.3323
      5 C         141.3092  138.6745  163.7384 C.ar    1  UNL1        0.0597
      6 C         140.5005  138.1299  164.8782 C.ar    1  UNL1        0.0172
      7 C         139.1212  137.5948  164.6308 C.ar    1  UNL1        0.0015
      8 C         138.5507  137.6044  163.2436 C.ar    1  UNL1        0.0001
      9 C         139.3594  138.1491  162.1038 C.ar    1  UNL1        0.0016
     10 C         140.7387  138.6841  162.3512 C.ar    1  UNL1        0.0212
     11 N         142.4244  138.6606  158.9973 N.am    1  UNL1       -0.2966
     12 C         141.6116  139.4818  159.9540 C.2     1  UNL1        0.2472
     13 O         140.6467  140.5046  159.4320 O.2     1  UNL1       -0.2701
     14 H         143.0577  137.9892  159.3398 H       1  UNL1        0.1501
     15 C         142.2721  138.8623  157.5187 C.3     1  UNL1        0.1245
     16 C         143.2008  137.1541  155.7955 C.ar    1  UNL1        0.1420
     17 C         142.9913  135.9729  154.8951 C.ar    1  UNL1        0.0494
     18 C         141.6437  135.3185  154.8174 C.ar    1  UNL1        0.0394
     19 C         141.4343  134.1373  153.9170 C.3     1  UNL1        0.0500
     20 N         140.5057  135.8455  155.6403 N.ar    1  UNL1       -0.3245
     21 C         140.7152  137.0268  156.5408 C.ar    1  UNL1        0.2579
     22 O         139.5771  137.5538  157.3636 O.2     1  UNL1       -0.2674
     23 C         142.0627  137.6811  156.6183 C.ar    1  UNL1        0.0872
     24 H         139.6212  135.4161  155.5894 H       1  UNL1        0.1686
     25 C         144.9323  138.8560  154.8705 C.3     1  UNL1        0.2525
     26 O         144.5483  137.8084  155.8730 O.3     1  UNL1       -0.4715
     27 C         143.6199  139.4480  164.8372 C.3     1  UNL1        0.0853
     28 C         145.0554  139.0287  164.7189 C.3     1  UNL1        0.0245
     29 C         143.1176  140.0507  166.1155 C.3     1  UNL1        0.0235
     30 C         142.8900  139.1810  167.3163 C.3     1  UNL1        0.0192
     31 C         142.3877  139.7838  168.5946 C.3     1  UNL1        0.0724
     32 N         142.1130  141.2563  168.6724 N.3     1  UNL1       -0.2656
     33 C         142.3406  142.1262  167.4717 C.3     1  UNL1        0.0724
     34 C         142.8429  141.5234  166.1933 C.3     1  UNL1        0.0192
     35 C         141.6107  141.8592  169.9508 C.3     1  UNL1        0.1767
     36 C         141.0892  143.2656  169.9627 C.3     1  UNL1        0.4121
     37 F         140.5677  144.6718  169.9746 F       1  UNL1       -0.1685
     38 F         142.4343  143.7606  170.4053 F       1  UNL1       -0.1685
     39 F         139.7442  142.7705  169.5201 F       1  UNL1       -0.1685
@<TRIPOS>BOND
     1    25    26    1
     2    26    16    1
     3    16    17   ar
     4    17    18   ar
     5    18    19    1
     6    18    20   ar
     7    20    21   ar
     8    21    22    2
     9    21    23   ar
    10    23    15    1
    11    15    11    1
    12    11    12   am
    13    12    13    2
    14    12     1    1
    15     1     2   ar
    16     2     3    1
    17     2     4   ar
    18     4    27    1
    19    27    28    1
    20    27    29    1
    21    29    30    1
    22    30    31    1
    23    31    32    1
    24    32    35    1
    25    35    36    1
    26    36    37    1
    27    36    38    1
    28    36    39    1
    29    32    33    1
    30    33    34    1
    31     4     5   ar
    32     5     6   ar
    33     6     7   ar
    34     7     8   ar
    35     8     9   ar
    36     9    10   ar
    37    23    16   ar
    38    10     1   ar
    39    34    29    1
    40    10     5   ar
    41    20    24    1
    42    11    14    1
@<TRIPOS>MOLECULE
*****
 39 42 0 0 0
SMALL
GASTEIGER

@<TRIPOS>ATOM
      1 C         139.7068  140.4640  161.5611 C.ar    1  UNL1        0.0664
      2 C         139.9785  139.3456  162.5231 C.ar    1  UNL1        0.0417
      3 C         140.6557  138.0474  162.1974 C.3     1  UNL1        0.0502
      4 N         139.4541  139.7534  163.8679 N.ar    1  UNL1       -0.3323
      5 C         138.8583  141.1238  163.7371 C.ar    1  UNL1        0.0597
      6 C         138.1937  142.0285  164.7320 C.ar    1  UNL1        0.0172
      7 C         137.6854  143.3723  164.3012 C.ar    1  UNL1        0.0015
      8 C         137.8416  143.8115  162.8755 C.ar    1  UNL1        0.0001
      9 C         138.5062  142.9068  161.8805 C.ar    1  UNL1        0.0016
     10 C         139.0145  141.5630  162.3114 C.ar    1  UNL1        0.0212
     11 N         141.0165  141.5133  159.5776 N.am    1  UNL1       -0.2966
     12 C         140.0647  140.4805  160.1045 C.2     1  UNL1        0.2472
     13 O         139.4708  139.4643  159.1747 O.2     1  UNL1       -0.2701
     14 H         141.4063  142.1803  160.1879 H       1  UNL1        0.1501
     15 C         141.3743  141.5298  158.1210 C.3     1  UNL1        0.1245
     16 C         143.4520  140.6771  156.8148 C.ar    1  UNL1        0.1420
     17 C         144.8823  140.8461  156.3959 C.ar    1  UNL1        0.0494
     18 C         145.6654  142.0367  156.8642 C.ar    1  UNL1        0.0394
     19 C         147.0958  142.2057  156.4452 C.3     1  UNL1        0.0500
     20 N         145.0181  143.0584  157.7514 N.ar    1  UNL1       -0.3245
     21 C         143.5876  142.8894  158.1704 C.ar    1  UNL1        0.2579
     22 O         142.9403  143.9110  159.0576 O.2     1  UNL1       -0.2674
     23 C         142.8046  141.6987  157.7021 C.ar    1  UNL1        0.0872
     24 H         145.5320  143.8398  158.0588 H       1  UNL1        0.1686
     25 C         143.0017  138.1188  156.8650 C.3     1  UNL1        0.2525
     26 O         142.6690  139.4865  156.3465 O.3     1  UNL1       -0.4715
     27 C         139.5147  138.9346  165.1233 C.3     1  UNL1        0.0853
     28 C         138.7202  137.6668  165.2310 C.3     1  UNL1        0.0245
     29 C         140.3699  139.3834  166.2709 C.3     1  UNL1        0.0235
     30 C         139.7307  139.9098  167.5217 C.3     1  UNL1        0.0192
     31 C         140.5860  140.3586  168.6693 C.3     1  UNL1        0.0724
     32 N         142.0804  140.2811  168.5663 N.3     1  UNL1       -0.2656
     33 C         142.7197  139.7547  167.3155 C.3     1  UNL1        0.0724
     34 C         141.8644  139.3059  166.1679 C.3     1  UNL1        0.0192
     35 C         142.9356  140.7299  169.7139 C.3     1  UNL1        0.1767
     36 C         142.9488  142.1739  170.1197 C.3     1  UNL1        0.4121
     37 F         142.9619  143.6178  170.5254 F       1  UNL1       -0.1685
     38 F         143.8268  142.4955  168.9468 F       1  UNL1       -0.1685
     39 F         142.0708  141.8522  171.2926 F       1  UNL1       -0.1685
@<TRIPOS>BOND
     1    25    26    1
     2    26    16    1
     3    16    17   ar
     4    17    18   ar
     5    18    19    1
     6    18    20   ar
     7    20    21   ar
     8    21    22    2
     9    21    23   ar
    10    23    15    1
    11    15    11    1
    12    11    12   am
    13    12    13    2
    14    12     1    1
    15     1     2   ar
    16     2     3    1
    17     2     4   ar
    18     4    27    1
    19    27    28    1
    20    27    29    1
    21    29    30    1
    22    30    31    1
    23    31    32    1
    24    32    35    1
    25    35    36    1
    26    36    37    1
    27    36    38    1
    28    36    39    1
    29    32    33    1
    30    33    34    1
    31     4     5   ar
    32     5     6   ar
    33     6     7   ar
    34     7     8   ar
    35     8     9   ar
    36     9    10   ar
    37    23    16   ar
    38    10     1   ar
    39    34    29    1
    40    10     5   ar
    41    20    24    1
    42    11    14    1
@<TRIPOS>MOLECULE
*****
 39 42 0 0 0
SMALL
GASTEIGER

@<TRIPOS>ATOM
      1 C         139.5566  141.2386  161.3146 C.ar    1  UNL1        0.0664
      2 C         139.9168  140.0119  162.0990 C.ar    1  UNL1        0.0417
      3 C         140.5992  138.7895  161.5602 C.3     1  UNL1        0.0502
      4 N         139.4748  140.2221  163.5169 N.ar    1  UNL1       -0.3323
      5 C         138.8414  141.5787  163.6088 C.ar    1  UNL1        0.0597
      6 C         138.2252  142.3231  164.7560 C.ar    1  UNL1        0.0172
      7 C         137.6595  143.6957  164.5420 C.ar    1  UNL1        0.0015
      8 C         137.7101  144.3240  163.1809 C.ar    1  UNL1        0.0001
      9 C         138.3263  143.5796  162.0337 C.ar    1  UNL1        0.0016
     10 C         138.8920  142.2070  162.2476 C.ar    1  UNL1        0.0212
     11 N         140.6944  142.5902  159.4096 N.am    1  UNL1       -0.2966
     12 C         139.8156  141.4584  159.8535 C.2     1  UNL1        0.2472
     13 O         139.1958  140.5467  158.8365 O.2     1  UNL1       -0.2701
     14 H         141.1012  143.1886  160.0771 H       1  UNL1        0.1501
     15 C         140.9533  142.8100  157.9485 C.3     1  UNL1        0.1245
     16 C         139.2996  143.9921  156.3306 C.ar    1  UNL1        0.1420
     17 C         138.8062  145.2404  155.6611 C.ar    1  UNL1        0.0494
     18 C         139.4730  146.5549  155.9398 C.ar    1  UNL1        0.0394
     19 C         138.9795  147.8031  155.2703 C.3     1  UNL1        0.0500
     20 N         140.6332  146.6209  156.8882 N.ar    1  UNL1       -0.3245
     21 C         141.1267  145.3726  157.5578 C.ar    1  UNL1        0.2579
     22 O         142.2870  145.4387  158.5061 O.2     1  UNL1       -0.2674
     23 C         140.4599  144.0582  157.2790 C.ar    1  UNL1        0.0872
     24 H         141.0709  147.4836  157.0712 H       1  UNL1        0.1686
     25 C         137.2268  142.4367  156.5157 C.3     1  UNL1        0.2525
     26 O         138.6327  142.6777  156.0518 O.3     1  UNL1       -0.4715
     27 C         139.6375  139.2469  164.6450 C.3     1  UNL1        0.0853
     28 C         139.2482  137.8105  164.4567 C.3     1  UNL1        0.0245
     29 C         140.1895  139.7079  165.9612 C.3     1  UNL1        0.0235
     30 C         141.6250  140.1304  166.0660 C.3     1  UNL1        0.0192
     31 C         142.1769  140.5914  167.3823 C.3     1  UNL1        0.0724
     32 N         141.2936  140.6299  168.5940 N.3     1  UNL1       -0.2656
     33 C         139.8581  140.2074  168.4893 C.3     1  UNL1        0.0724
     34 C         139.3061  139.7464  167.1729 C.3     1  UNL1        0.0192
     35 C         141.8455  141.0909  169.9103 C.3     1  UNL1        0.1767
     36 C         143.2001  141.7322  169.9724 C.3     1  UNL1        0.4121
     37 F         144.5547  142.3734  170.0344 F       1  UNL1       -0.1685
     38 F         142.6089  143.0270  169.4993 F       1  UNL1       -0.1685
     39 F         143.7913  140.4373  170.4454 F       1  UNL1       -0.1685
@<TRIPOS>BOND
     1    25    26    1
     2    26    16    1
     3    16    17   ar
     4    17    18   ar
     5    18    19    1
     6    18    20   ar
     7    20    21   ar
     8    21    22    2
     9    21    23   ar
    10    23    15    1
    11    15    11    1
    12    11    12   am
    13    12    13    2
    14    12     1    1
    15     1     2   ar
    16     2     3    1
    17     2     4   ar
    18     4    27    1
    19    27    28    1
    20    27    29    1
    21    29    30    1
    22    30    31    1
    23    31    32    1
    24    32    35    1
    25    35    36    1
    26    36    37    1
    27    36    38    1
    28    36    39    1
    29    32    33    1
    30    33    34    1
    31     4     5   ar
    32     5     6   ar
    33     6     7   ar
    34     7     8   ar
    35     8     9   ar
    36     9    10   ar
    37    23    16   ar
    38    10     1   ar
    39    34    29    1
    40    10     5   ar
    41    20    24    1
    42    11    14    1
@<TRIPOS>MOLECULE
*****
 39 42 0 0 0
SMALL
GASTEIGER

@<TRIPOS>ATOM
      1 C         139.2514  142.5299  161.2576 C.ar    1  UNL1        0.0664
      2 C         139.5140  143.5840  162.2920 C.ar    1  UNL1        0.0417
      3 C         139.8619  145.0177  162.0212 C.3     1  UNL1        0.0502
      4 N         139.3676  142.9525  163.6447 N.ar    1  UNL1       -0.3323
      5 C         139.0145  141.5082  163.4464 C.ar    1  UNL1        0.0597
      6 C         138.7491  140.3972  164.4185 C.ar    1  UNL1        0.0172
      7 C         138.4119  139.0250  163.9153 C.ar    1  UNL1        0.0015
      8 C         138.3401  138.7638  162.4400 C.ar    1  UNL1        0.0001
      9 C         138.6055  139.8748  161.4679 C.ar    1  UNL1        0.0016
     10 C         138.9427  141.2470  161.9710 C.ar    1  UNL1        0.0212
     11 N         140.6075  142.8770  159.0688 N.am    1  UNL1       -0.2966
     12 C         139.2906  142.7245  159.7708 C.2     1  UNL1        0.2472
     13 O         138.0131  142.7667  158.9860 O.2     1  UNL1       -0.2701
     14 H         141.4460  142.8493  159.5839 H       1  UNL1        0.1501
     15 C         140.6467  143.0716  157.5820 C.3     1  UNL1        0.1245
     16 C         139.0782  144.4163  156.0066 C.ar    1  UNL1        0.1420
     17 C         138.6462  145.7229  155.4097 C.ar    1  UNL1        0.0494
     18 C         139.3505  146.9912  155.7912 C.ar    1  UNL1        0.0394
     19 C         138.9184  148.2976  155.1942 C.3     1  UNL1        0.0500
     20 N         140.4868  146.9529  156.7696 N.ar    1  UNL1       -0.3245
     21 C         140.9189  145.6463  157.3665 C.ar    1  UNL1        0.2579
     22 O         142.0552  145.6080  158.3449 O.2     1  UNL1       -0.2674
     23 C         140.2146  144.3781  156.9850 C.ar    1  UNL1        0.0872
     24 H         140.9491  147.7853  157.0199 H       1  UNL1        0.1686
     25 C         138.5370  142.5859  154.2441 C.3     1  UNL1        0.2525
     26 O         138.3739  143.1481  155.6252 O.3     1  UNL1       -0.4715
     27 C         139.5434  143.6440  164.9642 C.3     1  UNL1        0.0853
     28 C         138.8471  144.9463  165.2271 C.3     1  UNL1        0.0245
     29 C         140.4155  143.0332  166.0207 C.3     1  UNL1        0.0235
     30 C         141.7362  142.4286  165.6460 C.3     1  UNL1        0.0192
     31 C         142.6082  141.8179  166.7026 C.3     1  UNL1        0.0724
     32 N         142.1598  141.8116  168.1339 N.3     1  UNL1       -0.2656
     33 C         140.8391  142.4162  168.5087 C.3     1  UNL1        0.0724
     34 C         139.9670  143.0270  167.4521 C.3     1  UNL1        0.0192
     35 C         143.0318  141.2009  169.1905 C.3     1  UNL1        0.1767
     36 C         142.7087  139.8415  169.7362 C.3     1  UNL1        0.4121
     37 F         142.3856  138.4823  170.2818 F       1  UNL1       -0.1685
     38 F         142.4016  140.4508  171.0721 F       1  UNL1       -0.1685
     39 F         143.0159  139.2323  168.4003 F       1  UNL1       -0.1685
@<TRIPOS>BOND
     1    25    26    1
     2    26    16    1
     3    16    17   ar
     4    17    18   ar
     5    18    19    1
     6    18    20   ar
     7    20    21   ar
     8    21    22    2
     9    21    23   ar
    10    23    15    1
    11    15    11    1
    12    11    12   am
    13    12    13    2
    14    12     1    1
    15     1     2   ar
    16     2     3    1
    17     2     4   ar
    18     4    27    1
    19    27    28    1
    20    27    29    1
    21    29    30    1
    22    30    31    1
    23    31    32    1
    24    32    35    1
    25    35    36    1
    26    36    37    1
    27    36    38    1
    28    36    39    1
    29    32    33    1
    30    33    34    1
    31     4     5   ar
    32     5     6   ar
    33     6     7   ar
    34     7     8   ar
    35     8     9   ar
    36     9    10   ar
    37    23    16   ar
    38    10     1   ar
    39    34    29    1
    40    10     5   ar
    41    20    24    1
    42    11    14    1
@<TRIPOS>MOLECULE
*****
 39 42 0 0 0
SMALL
GASTEIGER

@<TRIPOS>ATOM
      1 C         138.3903  140.5714  161.7590 C.ar    1  UNL1        0.0664
      2 C         138.7159  139.3734  162.6008 C.ar    1  UNL1        0.0417
      3 C         138.9086  137.9717  162.1026 C.3     1  UNL1        0.0502
      4 N         138.8150  139.8231  164.0284 N.ar    1  UNL1       -0.3323
      5 C         138.5507  141.2991  164.0688 C.ar    1  UNL1        0.0597
      6 C         138.5151  142.2817  165.2016 C.ar    1  UNL1        0.0172
      7 C         138.2170  143.7268  164.9318 C.ar    1  UNL1        0.0015
      8 C         137.9545  144.1893  163.5292 C.ar    1  UNL1        0.0001
      9 C         137.9901  143.2067  162.3964 C.ar    1  UNL1        0.0016
     10 C         138.2882  141.7616  162.6663 C.ar    1  UNL1        0.0212
     11 N         139.1027  141.4045  159.4034 N.am    1  UNL1       -0.2966
     12 C         138.2002  140.5782  160.2711 C.2     1  UNL1        0.2472
     13 O         137.1077  139.7588  159.6508 O.2     1  UNL1       -0.2701
     14 H         139.8199  141.9423  159.8105 H       1  UNL1        0.1501
     15 C         138.9126  141.4112  157.9155 C.3     1  UNL1        0.1245
     16 C         139.8813  143.7553  157.3525 C.ar    1  UNL1        0.1420
     17 C         139.7849  145.0577  156.6146 C.ar    1  UNL1        0.0494
     18 C         138.6234  145.3185  155.7020 C.ar    1  UNL1        0.0394
     19 C         138.5270  146.6209  154.9642 C.3     1  UNL1        0.0500
     20 N         137.5583  144.2768  155.5272 N.ar    1  UNL1       -0.3245
     21 C         137.6547  142.9744  156.2651 C.ar    1  UNL1        0.2579
     22 O         136.5897  141.9327  156.0903 O.2     1  UNL1       -0.2674
     23 C         138.8163  142.7136  157.1777 C.ar    1  UNL1        0.0872
     24 H         136.7960  144.4480  154.9282 H       1  UNL1        0.1686
     25 C         141.4845  144.5484  159.2369 C.3     1  UNL1        0.2525
     26 O         141.0429  143.4945  158.2651 O.3     1  UNL1       -0.4715
     27 C         139.1242  138.9502  165.2083 C.3     1  UNL1        0.0853
     28 C         138.4776  137.6025  165.3342 C.3     1  UNL1        0.0245
     29 C         140.0799  139.4247  166.2625 C.3     1  UNL1        0.0235
     30 C         139.5655  139.8412  167.6086 C.3     1  UNL1        0.0192
     31 C         140.5213  140.3158  168.6627 C.3     1  UNL1        0.0724
     32 N         141.9914  140.3740  168.3709 N.3     1  UNL1       -0.2656
     33 C         142.5059  139.9575  167.0247 C.3     1  UNL1        0.0724
     34 C         141.5501  139.4829  165.9706 C.3     1  UNL1        0.0192
     35 C         142.9472  140.8485  169.4250 C.3     1  UNL1        0.1767
     36 C         142.8650  142.2578  169.9323 C.3     1  UNL1        0.4121
     37 F         142.7828  143.6669  170.4396 F       1  UNL1       -0.1685
     38 F         142.1673  141.7721  171.1682 F       1  UNL1       -0.1685
     39 F         143.5627  142.7433  168.6964 F       1  UNL1       -0.1685
@<TRIPOS>BOND
     1    25    26    1
     2    26    16    1
     3    16    17   ar
     4    17    18   ar
     5    18    19    1
     6    18    20   ar
     7    20    21   ar
     8    21    22    2
     9    21    23   ar
    10    23    15    1
    11    15    11    1
    12    11    12   am
    13    12    13    2
    14    12     1    1
    15     1     2   ar
    16     2     3    1
    17     2     4   ar
    18     4    27    1
    19    27    28    1
    20    27    29    1
    21    29    30    1
    22    30    31    1
    23    31    32    1
    24    32    35    1
    25    35    36    1
    26    36    37    1
    27    36    38    1
    28    36    39    1
    29    32    33    1
    30    33    34    1
    31     4     5   ar
    32     5     6   ar
    33     6     7   ar
    34     7     8   ar
    35     8     9   ar
    36     9    10   ar
    37    23    16   ar
    38    10     1   ar
    39    34    29    1
    40    10     5   ar
    41    20    24    1
    42    11    14    1
