@<TRIPOS>MOLECULE
*****
 34 36 0 0 0
SMALL
GASTEIGER

@<TRIPOS>ATOM
      1 C         140.5769  142.9261  162.8695 C.ar    1  UNL1       -0.0197
      2 C         140.9814  141.5171  163.1874 C.ar    1  UNL1       -0.0042
      3 C         140.8602  141.0004  164.5903 C.ar    1  UNL1       -0.0003
      4 C         140.3346  141.8928  165.6755 C.ar    1  UNL1        0.0000
      5 C         139.9302  143.3018  165.3576 C.ar    1  UNL1       -0.0003
      6 C         140.0514  143.8184  163.9546 C.ar    1  UNL1       -0.0042
      7 C         140.2134  141.3761  167.0785 C.ar    1  UNL1        0.0013
      8 C         139.2411  140.2777  167.3918 C.ar    1  UNL1        0.0001
      9 C         139.1200  139.7610  168.7949 C.ar    1  UNL1        0.0013
     10 C         139.9711  140.3427  169.8845 C.ar    1  UNL1        0.0158
     11 C         140.9434  141.4411  169.5710 C.ar    1  UNL1        0.0644
     12 C         141.0646  141.9577  168.1681 C.ar    1  UNL1        0.0158
     13 N         141.7946  142.0227  170.6606 N.pl3   1  UNL1       -0.2187
     14 H         141.4201  142.1519  171.5619 H       1  UNL1        0.1734
     15 S         143.2164  142.4077  170.3769 S.O2    1  UNL1        0.0558
     16 C         144.6381  142.7927  170.0933 C.3     1  UNL1        0.1996
     17 O         143.5336  140.9826  170.0327 O.2     1  UNL1       -0.1544
     18 O         142.8992  143.8328  170.7211 O.2     1  UNL1       -0.1544
     19 N         140.2714  143.8526  159.1127 N.3     1  UNL1       -0.2725
     20 C         141.4979  144.6233  159.5025 C.3     1  UNL1        0.0900
     21 C         141.7616  144.3700  160.9572 C.3     1  UNL1        0.0964
     22 C         140.6981  143.4428  161.4665 C.3     1  UNL1        0.0557
     23 C         139.7771  143.1231  160.3266 C.3     1  UNL1        0.0779
     24 C         140.2008  144.6764  156.6497 C.3     1  UNL1        0.0173
     25 C         139.6485  143.8177  157.7486 C.3     1  UNL1        0.0576
     26 C         138.4733  142.9241  157.4833 C.3     1  UNL1        0.0173
     27 N         142.8906  144.9432  161.7614 N.3     1  UNL1       -0.1830
     28 H         142.4979  145.6981  162.3239 H       1  UNL1        0.1484
     29 S         143.6666  144.0646  162.6972 S.O2    1  UNL1        0.0390
     30 O         144.0298  143.1661  161.5524 O.2     1  UNL1       -0.1576
     31 O         143.3034  144.9631  163.8421 O.2     1  UNL1       -0.1576
     32 C         144.4426  143.1859  163.6330 C.3     1  UNL1        0.1457
     33 C         144.3295  143.3845  165.1155 C.3     1  UNL1        0.0270
     34 C         145.3318  142.1087  163.0863 C.3     1  UNL1        0.0270
@<TRIPOS>BOND
     1    24    25    1
     2    25    26    1
     3    25    19    1
     4    19    20    1
     5    20    21    1
     6    21    27    1
     7    27    29    1
     8    29    30    2
     9    29    31    2
    10    29    32    1
    11    32    33    1
    12    32    34    1
    13    21    22    1
    14    22     1    1
    15     1     2   ar
    16     2     3   ar
    17     3     4   ar
    18     4     7    1
    19     7     8   ar
    20     8     9   ar
    21     9    10   ar
    22    10    11   ar
    23    11    13    1
    24    13    15    1
    25    15    16    1
    26    15    17    2
    27    15    18    2
    28    11    12   ar
    29     4     5   ar
    30     5     6   ar
    31    22    23    1
    32    23    19    1
    33     6     1   ar
    34    12     7   ar
    35    27    28    1
    36    13    14    1
@<TRIPOS>MOLECULE
*****
 34 36 0 0 0
SMALL
GASTEIGER

@<TRIPOS>ATOM
      1 C         142.0180  143.0165  162.6817 C.ar    1  UNL1       -0.0197
      2 C         141.1944  141.7945  162.9616 C.ar    1  UNL1       -0.0042
      3 C         141.3490  141.0682  164.2649 C.ar    1  UNL1       -0.0003
      4 C         142.3271  141.5640  165.2883 C.ar    1  UNL1        0.0000
      5 C         143.1507  142.7861  165.0085 C.ar    1  UNL1       -0.0003
      6 C         142.9961  143.5123  163.7052 C.ar    1  UNL1       -0.0042
      7 C         142.4816  140.8378  166.5917 C.ar    1  UNL1        0.0013
      8 C         142.9014  139.3978  166.6027 C.ar    1  UNL1        0.0001
      9 C         143.0559  138.6715  167.9061 C.ar    1  UNL1        0.0013
     10 C         142.7907  139.3853  169.1984 C.ar    1  UNL1        0.0158
     11 C         142.3710  140.8254  169.1874 C.ar    1  UNL1        0.0644
     12 C         142.2164  141.5516  167.8840 C.ar    1  UNL1        0.0158
     13 N         142.1057  141.5392  170.4797 N.pl3   1  UNL1       -0.2187
     14 H         142.7590  141.4862  171.2144 H       1  UNL1        0.1734
     15 S         140.8452  142.3337  170.6527 S.O2    1  UNL1        0.0558
     16 C         139.5848  143.1283  170.8256 C.3     1  UNL1        0.1996
     17 O         140.0690  141.0630  170.8336 O.2     1  UNL1       -0.1544
     18 O         141.6215  143.6044  170.4718 O.2     1  UNL1       -0.1544
     19 N         142.0833  144.3661  159.0430 N.3     1  UNL1       -0.2725
     20 C         141.1680  145.3548  159.7025 C.3     1  UNL1        0.0900
     21 C         141.0322  144.9695  161.1458 C.3     1  UNL1        0.0964
     22 C         141.8635  143.7428  161.3783 C.3     1  UNL1        0.0557
     23 C         142.5131  143.3698  160.0788 C.3     1  UNL1        0.0779
     24 C         143.2426  143.2037  157.0293 C.3     1  UNL1        0.0173
     25 C         142.4962  144.3725  157.6010 C.3     1  UNL1        0.0576
     26 C         142.1628  145.5477  156.7306 C.3     1  UNL1        0.0173
     27 N         140.2095  145.6854  162.1757 N.3     1  UNL1       -0.1830
     28 H         139.6601  146.3863  161.6785 H       1  UNL1        0.1484
     29 S         139.2525  144.9168  163.0379 S.O2    1  UNL1        0.0390
     30 O         138.4717  144.5223  161.8194 O.2     1  UNL1       -0.1576
     31 O         140.0333  145.3112  164.2563 O.2     1  UNL1       -0.1576
     32 C         138.2954  144.1481  163.9000 C.3     1  UNL1        0.1457
     33 C         137.6060  142.9323  163.3555 C.3     1  UNL1        0.0270
     34 C         138.0279  144.5953  165.3065 C.3     1  UNL1        0.0270
@<TRIPOS>BOND
     1    24    25    1
     2    25    26    1
     3    25    19    1
     4    19    20    1
     5    20    21    1
     6    21    27    1
     7    27    29    1
     8    29    30    2
     9    29    31    2
    10    29    32    1
    11    32    33    1
    12    32    34    1
    13    21    22    1
    14    22     1    1
    15     1     2   ar
    16     2     3   ar
    17     3     4   ar
    18     4     7    1
    19     7     8   ar
    20     8     9   ar
    21     9    10   ar
    22    10    11   ar
    23    11    13    1
    24    13    15    1
    25    15    16    1
    26    15    17    2
    27    15    18    2
    28    11    12   ar
    29     4     5   ar
    30     5     6   ar
    31    22    23    1
    32    23    19    1
    33     6     1   ar
    34    12     7   ar
    35    27    28    1
    36    13    14    1
@<TRIPOS>MOLECULE
*****
 34 36 0 0 0
SMALL
GASTEIGER

@<TRIPOS>ATOM
      1 C         139.6382  142.8060  161.4804 C.ar    1  UNL1       -0.0197
      2 C         138.6861  143.3622  162.4973 C.ar    1  UNL1       -0.0042
      3 C         138.5036  142.6662  163.8134 C.ar    1  UNL1       -0.0003
      4 C         139.2733  141.4140  164.1127 C.ar    1  UNL1        0.0000
      5 C         140.2254  140.8578  163.0958 C.ar    1  UNL1       -0.0003
      6 C         140.4079  141.5538  161.7797 C.ar    1  UNL1       -0.0042
      7 C         139.0908  140.7180  165.4289 C.ar    1  UNL1        0.0013
      8 C         138.0948  139.6036  165.5562 C.ar    1  UNL1        0.0001
      9 C         137.9123  138.9076  166.8724 C.ar    1  UNL1        0.0013
     10 C         138.7258  139.3260  168.0612 C.ar    1  UNL1        0.0158
     11 C         139.7218  140.4404  167.9338 C.ar    1  UNL1        0.0644
     12 C         139.9042  141.1363  166.6176 C.ar    1  UNL1        0.0158
     13 N         140.5353  140.8587  169.1226 N.pl3   1  UNL1       -0.2187
     14 H         141.1200  140.2071  169.5729 H       1  UNL1        0.1734
     15 S         140.4578  142.2699  169.6253 S.O2    1  UNL1        0.0558
     16 C         140.3805  143.6810  170.1279 C.3     1  UNL1        0.1996
     17 O         139.1949  141.9378  170.3632 O.2     1  UNL1       -0.1544
     18 O         141.7208  142.6020  168.8874 O.2     1  UNL1       -0.1544
     19 N         139.6596  144.0650  157.8089 N.3     1  UNL1       -0.2725
     20 C         140.5437  145.0813  158.4689 C.3     1  UNL1        0.0900
     21 C         140.6433  144.7334  159.9246 C.3     1  UNL1        0.0964
     22 C         139.8208  143.5021  160.1642 C.3     1  UNL1        0.0557
     23 C         139.2128  143.0890  158.8566 C.3     1  UNL1        0.0779
     24 C         138.9070  145.2978  155.6493 C.3     1  UNL1        0.0173
     25 C         139.2876  144.0308  156.3561 C.3     1  UNL1        0.0576
     26 C         139.2963  142.7294  155.6102 C.3     1  UNL1        0.0173
     27 N         141.4277  145.4848  160.9590 N.3     1  UNL1       -0.1830
     28 H         140.7608  146.0595  161.4741 H       1  UNL1        0.1484
     29 S         142.2332  144.7365  161.9794 S.O2    1  UNL1        0.0390
     30 O         142.9891  144.0511  160.8799 O.2     1  UNL1       -0.1576
     31 O         141.4773  145.4219  163.0789 O.2     1  UNL1       -0.1576
     32 C         143.0388  143.9882  162.9997 C.3     1  UNL1        0.1457
     33 C         142.4292  143.6337  164.3236 C.3     1  UNL1        0.0270
     34 C         144.4539  143.5944  162.6961 C.3     1  UNL1        0.0270
@<TRIPOS>BOND
     1    24    25    1
     2    25    26    1
     3    25    19    1
     4    19    20    1
     5    20    21    1
     6    21    27    1
     7    27    29    1
     8    29    30    2
     9    29    31    2
    10    29    32    1
    11    32    33    1
    12    32    34    1
    13    21    22    1
    14    22     1    1
    15     1     2   ar
    16     2     3   ar
    17     3     4   ar
    18     4     7    1
    19     7     8   ar
    20     8     9   ar
    21     9    10   ar
    22    10    11   ar
    23    11    13    1
    24    13    15    1
    25    15    16    1
    26    15    17    2
    27    15    18    2
    28    11    12   ar
    29     4     5   ar
    30     5     6   ar
    31    22    23    1
    32    23    19    1
    33     6     1   ar
    34    12     7   ar
    35    27    28    1
    36    13    14    1
@<TRIPOS>MOLECULE
*****
 34 36 0 0 0
SMALL
GASTEIGER

@<TRIPOS>ATOM
      1 C         141.9999  141.2780  161.5923 C.ar    1  UNL1       -0.0197
      2 C         142.7727  140.9512  162.8356 C.ar    1  UNL1       -0.0042
      3 C         142.0485  140.5309  164.0801 C.ar    1  UNL1       -0.0003
      4 C         140.5515  140.4375  164.0813 C.ar    1  UNL1        0.0000
      5 C         139.7786  140.7642  162.8380 C.ar    1  UNL1       -0.0003
      6 C         140.5028  141.1845  161.5935 C.ar    1  UNL1       -0.0042
      7 C         139.8272  140.0172  165.3259 C.ar    1  UNL1        0.0013
      8 C         138.5180  139.2924  165.2233 C.ar    1  UNL1        0.0001
      9 C         137.7938  138.8721  166.4679 C.ar    1  UNL1        0.0013
     10 C         138.3789  139.1767  167.8151 C.ar    1  UNL1        0.0158
     11 C         139.6882  139.9015  167.9177 C.ar    1  UNL1        0.0644
     12 C         140.4123  140.3217  166.6731 C.ar    1  UNL1        0.0158
     13 N         140.2733  140.2060  169.2649 N.pl3   1  UNL1       -0.2187
     14 H         140.7826  139.5157  169.7478 H       1  UNL1        0.1734
     15 S         140.0823  141.5625  169.8762 S.O2    1  UNL1        0.0558
     16 C         139.8914  142.9189  170.4875 C.3     1  UNL1        0.1996
     17 O         141.4064  141.9985  169.3225 O.2     1  UNL1       -0.1544
     18 O         138.7582  141.1265  170.4299 O.2     1  UNL1       -0.1544
     19 N         144.0064  141.6285  158.2883 N.3     1  UNL1       -0.2725
     20 C         143.6705  143.0617  158.5768 C.3     1  UNL1        0.0900
     21 C         142.8780  143.1048  159.8496 C.3     1  UNL1        0.0964
     22 C         142.7241  141.6983  160.3477 C.3     1  UNL1        0.0557
     23 C         143.4215  140.7859  159.3827 C.3     1  UNL1        0.0779
     24 C         146.0704  141.8015  156.7198 C.3     1  UNL1        0.0173
     25 C         144.7898  141.1261  157.1118 C.3     1  UNL1        0.0576
     26 C         144.2924  139.9483  156.3273 C.3     1  UNL1        0.0173
     27 N         142.3348  144.3379  160.5086 N.3     1  UNL1       -0.1830
     28 H         141.3583  144.4175  160.2248 H       1  UNL1        0.1484
     29 S         142.3630  144.4641  162.0029 S.O2    1  UNL1        0.0390
     30 O         143.8591  144.3575  161.9836 O.2     1  UNL1       -0.1576
     31 O         140.8670  144.5707  162.0223 O.2     1  UNL1       -0.1576
     32 C         142.3914  144.5903  163.4973 C.3     1  UNL1        0.1457
     33 C         141.1489  144.3282  164.2959 C.3     1  UNL1        0.0270
     34 C         143.6622  144.9787  164.1932 C.3     1  UNL1        0.0270
@<TRIPOS>BOND
     1    24    25    1
     2    25    26    1
     3    25    19    1
     4    19    20    1
     5    20    21    1
     6    21    27    1
     7    27    29    1
     8    29    30    2
     9    29    31    2
    10    29    32    1
    11    32    33    1
    12    32    34    1
    13    21    22    1
    14    22     1    1
    15     1     2   ar
    16     2     3   ar
    17     3     4   ar
    18     4     7    1
    19     7     8   ar
    20     8     9   ar
    21     9    10   ar
    22    10    11   ar
    23    11    13    1
    24    13    15    1
    25    15    16    1
    26    15    17    2
    27    15    18    2
    28    11    12   ar
    29     4     5   ar
    30     5     6   ar
    31    22    23    1
    32    23    19    1
    33     6     1   ar
    34    12     7   ar
    35    27    28    1
    36    13    14    1
@<TRIPOS>MOLECULE
*****
 34 36 0 0 0
SMALL
GASTEIGER

@<TRIPOS>ATOM
      1 C         140.0211  141.0078  162.2844 C.ar    1  UNL1       -0.0197
      2 C         139.2574  140.0097  163.1032 C.ar    1  UNL1       -0.0042
      3 C         139.7583  139.6126  164.4601 C.ar    1  UNL1       -0.0003
      4 C         141.0229  140.2135  164.9983 C.ar    1  UNL1        0.0000
      5 C         141.7866  141.2116  164.1794 C.ar    1  UNL1       -0.0003
      6 C         141.2857  141.6088  162.8225 C.ar    1  UNL1       -0.0042
      7 C         141.5238  139.8164  166.3553 C.ar    1  UNL1        0.0013
      8 C         142.7819  139.0098  166.4839 C.ar    1  UNL1        0.0001
      9 C         143.2828  138.6126  167.8409 C.ar    1  UNL1        0.0013
     10 C         142.5255  139.0220  169.0693 C.ar    1  UNL1        0.0158
     11 C         141.2673  139.8286  168.9406 C.ar    1  UNL1        0.0644
     12 C         140.7665  140.2258  167.5837 C.ar    1  UNL1        0.0158
     13 N         140.5100  140.2381  170.1690 N.pl3   1  UNL1       -0.2187
     14 H         140.2410  139.5601  170.8303 H       1  UNL1        0.1734
     15 S         140.1625  141.6805  170.3898 S.O2    1  UNL1        0.0558
     16 C         139.8150  143.1228  170.6107 C.3     1  UNL1        0.1996
     17 O         141.6214  142.0283  170.4143 O.2     1  UNL1       -0.1544
     18 O         138.7036  141.3327  170.3653 O.2     1  UNL1       -0.1544
     19 N         139.2349  141.5413  158.5210 N.3     1  UNL1       -0.2725
     20 C         138.2639  142.4911  159.1574 C.3     1  UNL1        0.0900
     21 C         138.4402  142.4068  160.6446 C.3     1  UNL1        0.0964
     22 C         139.5202  141.4050  160.9273 C.3     1  UNL1        0.0557
     23 C         140.0114  140.8701  159.6149 C.3     1  UNL1        0.0779
     24 C         138.2229  141.4417  156.1302 C.3     1  UNL1        0.0173
     25 C         139.4005  141.3044  157.0491 C.3     1  UNL1        0.0576
     26 C         140.7436  140.9300  156.4960 C.3     1  UNL1        0.0173
     27 N         137.6715  143.1874  161.6692 N.3     1  UNL1       -0.1830
     28 H         137.0244  142.5349  162.1118 H       1  UNL1        0.1484
     29 S         138.3986  143.8933  162.7750 S.O2    1  UNL1        0.0390
     30 O         137.6739  143.0554  163.7863 O.2     1  UNL1       -0.1576
     31 O         139.1234  144.7312  161.7638 O.2     1  UNL1       -0.1576
     32 C         139.1257  144.5991  163.8810 C.3     1  UNL1        0.1457
     33 C         140.5084  145.1324  163.6488 C.3     1  UNL1        0.0270
     34 C         138.4701  144.7718  165.2190 C.3     1  UNL1        0.0270
@<TRIPOS>BOND
     1    24    25    1
     2    25    26    1
     3    25    19    1
     4    19    20    1
     5    20    21    1
     6    21    27    1
     7    27    29    1
     8    29    30    2
     9    29    31    2
    10    29    32    1
    11    32    33    1
    12    32    34    1
    13    21    22    1
    14    22     1    1
    15     1     2   ar
    16     2     3   ar
    17     3     4   ar
    18     4     7    1
    19     7     8   ar
    20     8     9   ar
    21     9    10   ar
    22    10    11   ar
    23    11    13    1
    24    13    15    1
    25    15    16    1
    26    15    17    2
    27    15    18    2
    28    11    12   ar
    29     4     5   ar
    30     5     6   ar
    31    22    23    1
    32    23    19    1
    33     6     1   ar
    34    12     7   ar
    35    27    28    1
    36    13    14    1
@<TRIPOS>MOLECULE
*****
 34 36 0 0 0
SMALL
GASTEIGER

@<TRIPOS>ATOM
      1 C         139.1748  140.6388  163.1347 C.ar    1  UNL1       -0.0197
      2 C         138.0636  140.0605  163.9597 C.ar    1  UNL1       -0.0042
      3 C         138.2191  139.9374  165.4465 C.ar    1  UNL1       -0.0003
      4 C         139.4860  140.3926  166.1083 C.ar    1  UNL1        0.0000
      5 C         140.5972  140.9708  165.2833 C.ar    1  UNL1       -0.0003
      6 C         140.4417  141.0939  163.7965 C.ar    1  UNL1       -0.0042
      7 C         139.6415  140.2694  167.5952 C.ar    1  UNL1        0.0013
      8 C         138.4792  139.8337  168.4373 C.ar    1  UNL1        0.0001
      9 C         138.6347  139.7106  169.9242 C.ar    1  UNL1        0.0013
     10 C         139.9526  140.0232  170.5688 C.ar    1  UNL1        0.0158
     11 C         141.1149  140.4590  169.7266 C.ar    1  UNL1        0.0644
     12 C         140.9593  140.5821  168.2398 C.ar    1  UNL1        0.0158
     13 N         142.4327  140.7716  170.3713 N.pl3   1  UNL1       -0.2187
     14 H         143.0337  140.0405  170.6426 H       1  UNL1        0.1734
     15 S         142.8348  142.1981  170.6026 S.O2    1  UNL1        0.0558
     16 C         143.2370  143.6245  170.8338 C.3     1  UNL1        0.1996
     17 O         141.8549  142.2909  171.7344 O.2     1  UNL1       -0.1544
     18 O         143.8148  142.1053  169.4708 O.2     1  UNL1       -0.1544
     19 N         139.1345  140.2969  159.2685 N.3     1  UNL1       -0.2725
     20 C         138.4253  141.6060  159.4511 C.3     1  UNL1        0.0900
     21 C         138.3541  141.8934  160.9216 C.3     1  UNL1        0.0964
     22 C         139.0193  140.7619  161.6478 C.3     1  UNL1        0.0557
     23 C         139.5016  139.7753  160.6262 C.3     1  UNL1        0.0779
     24 C         139.8553  138.1902  157.9297 C.3     1  UNL1        0.0173
     25 C         139.4256  139.6271  157.9583 C.3     1  UNL1        0.0576
     26 C         139.2868  140.3940  156.6767 C.3     1  UNL1        0.0173
     27 N         137.7277  143.1004  161.5547 N.3     1  UNL1       -0.1830
     28 H         136.8661  142.7853  162.0004 H       1  UNL1        0.1484
     29 S         138.4853  143.8859  162.5838 S.O2    1  UNL1        0.0390
     30 O         137.4655  143.5133  163.6188 O.2     1  UNL1       -0.1576
     31 O         139.5051  144.2585  161.5488 O.2     1  UNL1       -0.1576
     32 C         139.2428  144.6714  163.6129 C.3     1  UNL1        0.1457
     33 C         140.5550  145.3048  163.2567 C.3     1  UNL1        0.0270
     34 C         138.6881  144.8234  164.9983 C.3     1  UNL1        0.0270
@<TRIPOS>BOND
     1    24    25    1
     2    25    26    1
     3    25    19    1
     4    19    20    1
     5    20    21    1
     6    21    27    1
     7    27    29    1
     8    29    30    2
     9    29    31    2
    10    29    32    1
    11    32    33    1
    12    32    34    1
    13    21    22    1
    14    22     1    1
    15     1     2   ar
    16     2     3   ar
    17     3     4   ar
    18     4     7    1
    19     7     8   ar
    20     8     9   ar
    21     9    10   ar
    22    10    11   ar
    23    11    13    1
    24    13    15    1
    25    15    16    1
    26    15    17    2
    27    15    18    2
    28    11    12   ar
    29     4     5   ar
    30     5     6   ar
    31    22    23    1
    32    23    19    1
    33     6     1   ar
    34    12     7   ar
    35    27    28    1
    36    13    14    1
@<TRIPOS>MOLECULE
*****
 34 36 0 0 0
SMALL
GASTEIGER

@<TRIPOS>ATOM
      1 C         141.3774  142.2196  163.2131 C.ar    1  UNL1       -0.0197
      2 C         142.0738  140.8925  163.2740 C.ar    1  UNL1       -0.0042
      3 C         142.2825  140.2151  164.5960 C.ar    1  UNL1       -0.0003
      4 C         141.7948  140.8648  165.8569 C.ar    1  UNL1        0.0000
      5 C         141.0983  142.1919  165.7959 C.ar    1  UNL1       -0.0003
      6 C         140.8896  142.8693  164.4740 C.ar    1  UNL1       -0.0042
      7 C         142.0035  140.1873  167.1789 C.ar    1  UNL1        0.0013
      8 C         142.9896  139.0634  167.2982 C.ar    1  UNL1        0.0001
      9 C         143.1983  138.3859  168.6202 C.ar    1  UNL1        0.0013
     10 C         142.4209  138.8325  169.8228 C.ar    1  UNL1        0.0158
     11 C         141.4348  139.9565  169.7034 C.ar    1  UNL1        0.0644
     12 C         141.2261  140.6339  168.3815 C.ar    1  UNL1        0.0158
     13 N         140.6574  140.4031  170.9060 N.pl3   1  UNL1       -0.2187
     14 H         140.5036  139.7795  171.6522 H       1  UNL1        0.1734
     15 S         140.1143  141.7998  170.9717 S.O2    1  UNL1        0.0558
     16 C         139.5713  143.1965  171.0375 C.3     1  UNL1        0.1996
     17 O         138.8041  141.3162  170.4247 O.2     1  UNL1       -0.1544
     18 O         141.4245  142.2835  171.5188 O.2     1  UNL1       -0.1544
     19 N         140.2818  143.4708  159.7060 N.3     1  UNL1       -0.2725
     20 C         141.4132  144.4083  160.0077 C.3     1  UNL1        0.0900
     21 C         141.9613  144.0537  161.3582 C.3     1  UNL1        0.0964
     22 C         141.1686  142.8970  161.8911 C.3     1  UNL1        0.0557
     23 C         140.1306  142.5368  160.8699 C.3     1  UNL1        0.0779
     24 C         139.7843  144.3958  157.3297 C.3     1  UNL1        0.0173
     25 C         139.4479  143.4679  158.4591 C.3     1  UNL1        0.0576
     26 C         138.2776  142.5369  158.3417 C.3     1  UNL1        0.0173
     27 N         143.1018  144.7359  162.0537 N.3     1  UNL1       -0.1830
     28 H         142.7092  145.5390  162.5449 H       1  UNL1        0.1484
     29 S         143.9315  143.9820  163.0504 S.O2    1  UNL1        0.0390
     30 O         144.4738  143.1215  161.9479 O.2     1  UNL1       -0.1576
     31 O         143.3892  144.8425  164.1528 O.2     1  UNL1       -0.1576
     32 C         144.7611  143.2281  164.0469 C.3     1  UNL1        0.1457
     33 C         144.7288  143.6153  165.4957 C.3     1  UNL1        0.0270
     34 C         145.6232  142.0868  163.5947 C.3     1  UNL1        0.0270
@<TRIPOS>BOND
     1    24    25    1
     2    25    26    1
     3    25    19    1
     4    19    20    1
     5    20    21    1
     6    21    27    1
     7    27    29    1
     8    29    30    2
     9    29    31    2
    10    29    32    1
    11    32    33    1
    12    32    34    1
    13    21    22    1
    14    22     1    1
    15     1     2   ar
    16     2     3   ar
    17     3     4   ar
    18     4     7    1
    19     7     8   ar
    20     8     9   ar
    21     9    10   ar
    22    10    11   ar
    23    11    13    1
    24    13    15    1
    25    15    16    1
    26    15    17    2
    27    15    18    2
    28    11    12   ar
    29     4     5   ar
    30     5     6   ar
    31    22    23    1
    32    23    19    1
    33     6     1   ar
    34    12     7   ar
    35    27    28    1
    36    13    14    1
@<TRIPOS>MOLECULE
*****
 34 36 0 0 0
SMALL
GASTEIGER

@<TRIPOS>ATOM
      1 C         142.2162  141.2966  161.7268 C.ar    1  UNL1       -0.0197
      2 C         142.5319  139.9996  162.4109 C.ar    1  UNL1       -0.0042
      3 C         141.7826  139.6025  163.6481 C.ar    1  UNL1       -0.0003
      4 C         140.7176  140.5024  164.2012 C.ar    1  UNL1        0.0000
      5 C         140.4019  141.7994  163.5171 C.ar    1  UNL1       -0.0003
      6 C         141.1512  142.1965  162.2799 C.ar    1  UNL1       -0.0042
      7 C         139.9682  140.1052  165.4385 C.ar    1  UNL1        0.0013
      8 C         138.8152  139.1506  165.3431 C.ar    1  UNL1        0.0001
      9 C         138.0659  138.7535  166.5804 C.ar    1  UNL1        0.0013
     10 C         138.4696  139.3110  167.9131 C.ar    1  UNL1        0.0158
     11 C         139.6227  140.2656  168.0085 C.ar    1  UNL1        0.0644
     12 C         140.3720  140.6627  166.7713 C.ar    1  UNL1        0.0158
     13 N         140.0265  140.8231  169.3412 N.pl3   1  UNL1       -0.2187
     14 H         139.3380  141.0795  169.9966 H       1  UNL1        0.1734
     15 S         141.4793  140.9901  169.6754 S.O2    1  UNL1        0.0558
     16 C         142.9320  141.1570  170.0095 C.3     1  UNL1        0.1996
     17 O         141.6128  139.5048  169.8370 O.2     1  UNL1       -0.1544
     18 O         141.3458  142.4753  169.5138 O.2     1  UNL1       -0.1544
     19 N         143.5314  142.1029  158.1651 N.3     1  UNL1       -0.2725
     20 C         144.7059  142.5070  159.0061 C.3     1  UNL1        0.0900
     21 C         144.3562  142.2542  160.4427 C.3     1  UNL1        0.0964
     22 C         142.9656  141.6938  160.4895 C.3     1  UNL1        0.0557
     23 C         142.4559  141.6003  159.0819 C.3     1  UNL1        0.0779
     24 C         143.9171  141.0384  155.8266 C.3     1  UNL1        0.0173
     25 C         143.4473  142.1866  156.6697 C.3     1  UNL1        0.0576
     26 C         142.8935  143.4186  156.0175 C.3     1  UNL1        0.0173
     27 N         145.2416  142.5158  161.6248 N.3     1  UNL1       -0.1830
     28 H         145.9773  143.1471  161.3077 H       1  UNL1        0.1484
     29 S         144.6669  143.1137  162.8746 S.O2    1  UNL1        0.0390
     30 O         144.2069  144.3077  162.0918 O.2     1  UNL1       -0.1576
     31 O         145.1268  141.9198  163.6575 O.2     1  UNL1       -0.1576
     32 C         144.0921  143.7118  164.1244 C.3     1  UNL1        0.1457
     33 C         143.7248  145.1657  164.1599 C.3     1  UNL1        0.0270
     34 C         143.8847  142.8559  165.3387 C.3     1  UNL1        0.0270
@<TRIPOS>BOND
     1    24    25    1
     2    25    26    1
     3    25    19    1
     4    19    20    1
     5    20    21    1
     6    21    27    1
     7    27    29    1
     8    29    30    2
     9    29    31    2
    10    29    32    1
    11    32    33    1
    12    32    34    1
    13    21    22    1
    14    22     1    1
    15     1     2   ar
    16     2     3   ar
    17     3     4   ar
    18     4     7    1
    19     7     8   ar
    20     8     9   ar
    21     9    10   ar
    22    10    11   ar
    23    11    13    1
    24    13    15    1
    25    15    16    1
    26    15    17    2
    27    15    18    2
    28    11    12   ar
    29     4     5   ar
    30     5     6   ar
    31    22    23    1
    32    23    19    1
    33     6     1   ar
    34    12     7   ar
    35    27    28    1
    36    13    14    1
@<TRIPOS>MOLECULE
*****
 34 36 0 0 0
SMALL
GASTEIGER

@<TRIPOS>ATOM
      1 C         141.3910  139.0897  162.5400 C.ar    1  UNL1       -0.0197
      2 C         141.6156  137.9865  163.5312 C.ar    1  UNL1       -0.0042
      3 C         141.2929  138.2028  164.9800 C.ar    1  UNL1       -0.0003
      4 C         140.7457  139.5223  165.4376 C.ar    1  UNL1        0.0000
      5 C         140.5211  140.6255  164.4465 C.ar    1  UNL1       -0.0003
      6 C         140.8437  140.4092  162.9977 C.ar    1  UNL1       -0.0042
      7 C         140.4230  139.7385  166.8865 C.ar    1  UNL1        0.0013
      8 C         139.0053  139.6279  167.3638 C.ar    1  UNL1        0.0001
      9 C         138.6827  139.8442  168.8127 C.ar    1  UNL1        0.0013
     10 C         139.7778  140.1710  169.7842 C.ar    1  UNL1        0.0158
     11 C         141.1956  140.2817  169.3069 C.ar    1  UNL1        0.0644
     12 C         141.5182  140.0654  167.8580 C.ar    1  UNL1        0.0158
     13 N         142.2907  140.6085  170.2784 N.pl3   1  UNL1       -0.2187
     14 H         142.7694  139.8842  170.7426 H       1  UNL1        0.1734
     15 S         142.6565  142.0391  170.5427 S.O2    1  UNL1        0.0558
     16 C         143.0224  143.4696  170.8069 C.3     1  UNL1        0.1996
     17 O         141.6944  142.0727  171.6929 O.2     1  UNL1       -0.1544
     18 O         143.6186  142.0055  169.3924 O.2     1  UNL1       -0.1544
     19 N         141.4860  138.4058  158.7205 N.3     1  UNL1       -0.2725
     20 C         142.9343  138.6757  159.0027 C.3     1  UNL1        0.0900
     21 C         143.0750  138.9647  160.4679 C.3     1  UNL1        0.0964
     22 C         141.7136  138.8735  161.0911 C.3     1  UNL1        0.0557
     23 C         140.7316  138.5281  160.0112 C.3     1  UNL1        0.0779
     24 C         139.8587  138.9699  156.7753 C.3     1  UNL1        0.0173
     25 C         140.8957  138.0722  157.3824 C.3     1  UNL1        0.0576
     26 C         141.3426  136.8410  156.6514 C.3     1  UNL1        0.0173
     27 N         144.3526  139.2882  161.1840 N.3     1  UNL1       -0.1830
     28 H         145.0883  139.3108  160.4779 H       1  UNL1        0.1484
     29 S         144.4697  140.5589  161.9722 S.O2    1  UNL1        0.0390
     30 O         144.2224  141.3551  160.7252 O.2     1  UNL1       -0.1576
     31 O         144.7170  139.7628  163.2192 O.2     1  UNL1       -0.1576
     32 C         144.5867  141.8298  162.7603 C.3     1  UNL1        0.1457
     33 C         144.3755  143.1528  162.0858 C.3     1  UNL1        0.0270
     34 C         144.9149  141.7777  164.2231 C.3     1  UNL1        0.0270
@<TRIPOS>BOND
     1    24    25    1
     2    25    26    1
     3    25    19    1
     4    19    20    1
     5    20    21    1
     6    21    27    1
     7    27    29    1
     8    29    30    2
     9    29    31    2
    10    29    32    1
    11    32    33    1
    12    32    34    1
    13    21    22    1
    14    22     1    1
    15     1     2   ar
    16     2     3   ar
    17     3     4   ar
    18     4     7    1
    19     7     8   ar
    20     8     9   ar
    21     9    10   ar
    22    10    11   ar
    23    11    13    1
    24    13    15    1
    25    15    16    1
    26    15    17    2
    27    15    18    2
    28    11    12   ar
    29     4     5   ar
    30     5     6   ar
    31    22    23    1
    32    23    19    1
    33     6     1   ar
    34    12     7   ar
    35    27    28    1
    36    13    14    1
