@<TRIPOS>MOLECULE
*****
 42 47 0 0 0
SMALL
GASTEIGER

@<TRIPOS>ATOM
      1 C         137.8673  140.0829  162.4132 C.3     1  UNL1        0.0700
      2 C         137.9341  141.1848  161.3976 C.3     1  UNL1        0.0193
      3 C         137.9135  142.6171  161.8425 C.3     1  UNL1        0.0286
      4 C         137.8262  142.9476  163.3031 C.3     1  UNL1        0.0932
      5 C         137.7594  141.8458  164.3187 C.3     1  UNL1        0.0286
      6 C         137.7800  140.4134  163.8737 C.3     1  UNL1        0.0193
      7 O         137.8345  142.1479  163.1074 O.3     1  UNL1       -0.3572
      8 C         137.8530  140.8527  162.7051 C.3     1  UNL1        0.1562
      9 N         137.8879  138.6506  161.9683 N.3     1  UNL1       -0.2926
     10 H         137.5400  138.0946  162.7495 H       1  UNL1        0.1236
     11 C         139.1759  138.0204  161.5280 C.3     1  UNL1        0.1152
     12 O         145.9423  141.7094  162.6926 O.2     1  UNL1       -0.2707
     13 C         144.9347  140.6805  163.1122 C.2     1  UNL1        0.2718
     14 C         145.1749  139.8524  164.3396 C.3     1  UNL1        0.2898
     15 O         144.1673  138.8235  164.7592 O.3     1  UNL1       -0.4628
     16 C         142.9195  138.6227  163.9514 C.ar    1  UNL1        0.1708
     17 C         141.9118  137.5938  164.3710 C.ar    1  UNL1        0.0411
     18 C         140.6640  137.3931  163.5632 C.ar    1  UNL1        0.0193
     19 C         140.4238  138.2212  162.3358 C.ar    1  UNL1        0.0765
     20 N         141.4314  139.2501  161.9162 N.ar    1  UNL1       -0.2304
     21 C         142.6793  139.4508  162.7240 C.ar    1  UNL1        0.1682
     22 N         143.6869  140.4797  162.3044 N.am    1  UNL1       -0.2639
     23 H         143.5292  141.0233  161.4989 H       1  UNL1        0.1565
     24 C         137.8056  144.3799  163.7479 C.3     1  UNL1        0.0320
     25 C         138.9547  144.9375  164.5346 C.3     1  UNL1        0.0327
     26 C         140.3481  144.4450  164.2784 C.ar    1  UNL1        0.0261
     27 C         141.1064  144.9302  163.0785 C.ar    1  UNL1        0.1566
     28 F         140.4712  145.9079  162.1348 F       1  UNL1       -0.2028
     29 C         142.4999  144.4376  162.8224 C.ar    1  UNL1        0.1281
     30 N         143.1351  143.4599  163.7661 N.ar    1  UNL1       -0.2400
     31 C         142.3769  142.9748  164.9660 C.ar    1  UNL1        0.0990
     32 C         143.0121  141.9971  165.9097 C.ar    1  UNL1        0.0254
     33 C         142.2538  141.5119  167.1096 C.ar    1  UNL1        0.0593
     34 C         140.8604  142.0045  167.3657 C.ar    1  UNL1        0.2252
     35 N         140.2251  142.9822  166.4220 N.ar    1  UNL1       -0.2104
     36 C         140.9833  143.4673  165.2222 C.ar    1  UNL1        0.1002
     37 O         140.1022  141.5193  168.5656 O.3     1  UNL1       -0.4509
     38 C         140.1586  142.2907  169.8507 C.3     1  UNL1        0.3095
     39 C         141.3838  143.0844  170.1960 C.3     1  UNL1        0.4381
     40 F         142.6089  143.8779  170.5412 F       1  UNL1       -0.1663
     41 F         142.0964  141.8197  170.5737 F       1  UNL1       -0.1663
     42 F         140.6711  144.3490  169.8182 F       1  UNL1       -0.1663
@<TRIPOS>BOND
     1    12    13    2
     2    13    14    1
     3    14    15    1
     4    15    16    1
     5    16    17   ar
     6    17    18   ar
     7    18    19   ar
     8    19    11    1
     9    11     9    1
    10     9     1    1
    11     1     2    1
    12     2     3    1
    13     3     4    1
    14     4    24    1
    15    24    25    1
    16    25    26    1
    17    26    27   ar
    18    27    28    1
    19    27    29   ar
    20    29    30   ar
    21    30    31   ar
    22    31    32   ar
    23    32    33   ar
    24    33    34   ar
    25    34    37    1
    26    37    38    1
    27    38    39    1
    28    39    40    1
    29    39    41    1
    30    39    42    1
    31    34    35   ar
    32    35    36   ar
    33     4     5    1
    34     5     6    1
    35     4     7    1
    36     7     8    1
    37    19    20   ar
    38    20    21   ar
    39    21    22    1
    40    22    13   am
    41    21    16   ar
    42     6     1    1
    43     8     1    1
    44    36    26   ar
    45    36    31   ar
    46     9    10    1
    47    22    23    1
@<TRIPOS>MOLECULE
*****
 42 47 0 0 0
SMALL
GASTEIGER

@<TRIPOS>ATOM
      1 C         137.9237  140.0291  162.5261 C.3     1  UNL1        0.0700
      2 C         137.9513  140.1884  164.0174 C.3     1  UNL1        0.0193
      3 C         137.8496  141.5548  164.6278 C.3     1  UNL1        0.0286
      4 C         137.7203  142.7620  163.7468 C.3     1  UNL1        0.0932
      5 C         137.6926  142.6027  162.2556 C.3     1  UNL1        0.0286
      6 C         137.7944  141.2362  161.6452 C.3     1  UNL1        0.0193
      7 O         137.7729  142.0337  163.3664 O.3     1  UNL1       -0.3572
      8 C         137.8649  140.7982  162.8145 C.3     1  UNL1        0.1562
      9 N         138.0254  138.6627  161.9158 N.3     1  UNL1       -0.2926
     10 H         137.7109  137.9996  162.6242 H       1  UNL1        0.1236
     11 C         139.3468  138.1631  161.4112 C.3     1  UNL1        0.1152
     12 O         146.1193  141.7754  162.7657 O.2     1  UNL1       -0.2707
     13 C         145.0971  140.7458  163.1469 C.2     1  UNL1        0.2718
     14 C         145.3104  139.8908  164.3608 C.3     1  UNL1        0.2898
     15 O         144.2883  138.8613  164.7419 O.3     1  UNL1       -0.4628
     16 C         143.0529  138.6867  163.9093 C.ar    1  UNL1        0.1708
     17 C         142.0308  137.6572  164.2905 C.ar    1  UNL1        0.0411
     18 C         140.7954  137.4826  163.4578 C.ar    1  UNL1        0.0193
     19 C         140.5821  138.3376  162.2439 C.ar    1  UNL1        0.0765
     20 N         141.6042  139.3672  161.8627 N.ar    1  UNL1       -0.2304
     21 C         142.8397  139.5417  162.6954 C.ar    1  UNL1        0.1682
     22 N         143.8618  140.5713  162.3143 N.am    1  UNL1       -0.2639
     23 H         143.7218  141.1324  161.5176 H       1  UNL1        0.1565
     24 C         137.6186  144.1284  164.3572 C.3     1  UNL1        0.0320
     25 C         138.8467  144.8054  164.8895 C.3     1  UNL1        0.0327
     26 C         140.2041  144.3757  164.4176 C.ar    1  UNL1        0.0261
     27 C         140.7260  144.8574  163.0963 C.ar    1  UNL1        0.1566
     28 F         139.8905  145.7688  162.2470 F       1  UNL1       -0.2028
     29 C         142.0834  144.4277  162.6244 C.ar    1  UNL1        0.1281
     30 N         142.9190  143.5163  163.4736 N.ar    1  UNL1       -0.2400
     31 C         142.3971  143.0346  164.7948 C.ar    1  UNL1        0.0990
     32 C         143.2327  142.1232  165.6441 C.ar    1  UNL1        0.0254
     33 C         142.7108  141.6415  166.9653 C.ar    1  UNL1        0.0593
     34 C         141.3534  142.0712  167.4373 C.ar    1  UNL1        0.2252
     35 N         140.5178  142.9826  166.5880 N.ar    1  UNL1       -0.2104
     36 C         141.0397  143.4643  165.2668 C.ar    1  UNL1        0.1002
     37 O         140.8315  141.5895  168.7585 O.3     1  UNL1       -0.4509
     38 C         140.3549  140.1749  168.9059 C.3     1  UNL1        0.3095
     39 C         139.1924  139.6866  168.0933 C.3     1  UNL1        0.4381
     40 F         138.0301  139.1983  167.2807 F       1  UNL1       -0.1663
     41 F         140.1137  139.4080  166.9429 F       1  UNL1       -0.1663
     42 F         138.2711  139.9652  169.2437 F       1  UNL1       -0.1663
@<TRIPOS>BOND
     1    12    13    2
     2    13    14    1
     3    14    15    1
     4    15    16    1
     5    16    17   ar
     6    17    18   ar
     7    18    19   ar
     8    19    11    1
     9    11     9    1
    10     9     1    1
    11     1     2    1
    12     2     3    1
    13     3     4    1
    14     4    24    1
    15    24    25    1
    16    25    26    1
    17    26    27   ar
    18    27    28    1
    19    27    29   ar
    20    29    30   ar
    21    30    31   ar
    22    31    32   ar
    23    32    33   ar
    24    33    34   ar
    25    34    37    1
    26    37    38    1
    27    38    39    1
    28    39    40    1
    29    39    41    1
    30    39    42    1
    31    34    35   ar
    32    35    36   ar
    33     4     5    1
    34     5     6    1
    35     4     7    1
    36     7     8    1
    37    19    20   ar
    38    20    21   ar
    39    21    22    1
    40    22    13   am
    41    21    16   ar
    42     6     1    1
    43     8     1    1
    44    36    26   ar
    45    36    31   ar
    46     9    10    1
    47    22    23    1
@<TRIPOS>MOLECULE
*****
 42 47 0 0 0
SMALL
GASTEIGER

@<TRIPOS>ATOM
      1 C         144.4254  139.7287  163.3808 C.3     1  UNL1        0.0700
      2 C         143.5295  139.2473  162.2782 C.3     1  UNL1        0.0193
      3 C         142.3662  138.3543  162.5930 C.3     1  UNL1        0.0286
      4 C         142.0987  137.9425  164.0104 C.3     1  UNL1        0.0932
      5 C         142.9946  138.4239  165.1130 C.3     1  UNL1        0.0286
      6 C         144.1579  139.3170  164.7982 C.3     1  UNL1        0.0193
      7 O         142.7483  138.4332  163.8869 O.3     1  UNL1       -0.3572
      8 C         143.8002  139.2407  163.6023 C.3     1  UNL1        0.1562
      9 N         145.5887  140.6217  163.0661 N.3     1  UNL1       -0.2926
     10 H         146.4162  140.1793  163.4660 H       1  UNL1        0.1236
     11 C         145.5894  142.0462  163.5362 C.3     1  UNL1        0.1152
     12 O         140.4959  145.4854  158.7425 O.2     1  UNL1       -0.2707
     13 C         140.9818  145.1981  160.1323 C.2     1  UNL1        0.2718
     14 C         140.2559  145.7698  161.3138 C.3     1  UNL1        0.2898
     15 O         140.7418  145.4825  162.7035 O.3     1  UNL1       -0.4628
     16 C         141.9537  144.6234  162.9117 C.ar    1  UNL1        0.1708
     17 C         142.4396  144.3361  164.3014 C.ar    1  UNL1        0.0411
     18 C         143.6515  143.4771  164.5096 C.ar    1  UNL1        0.0193
     19 C         144.3775  142.9053  163.3280 C.ar    1  UNL1        0.0765
     20 N         143.8916  143.1926  161.9383 N.ar    1  UNL1       -0.2304
     21 C         142.6796  144.0517  161.7301 C.ar    1  UNL1        0.1682
     22 N         142.1937  144.3390  160.3404 N.am    1  UNL1       -0.2639
     23 H         142.6702  143.9638  159.5649 H       1  UNL1        0.1565
     24 C         140.9354  137.0494  164.3251 C.3     1  UNL1        0.0320
     25 C         139.6583  137.6375  164.8478 C.3     1  UNL1        0.0327
     26 C         139.1748  138.9600  164.3310 C.ar    1  UNL1        0.0261
     27 C         138.4034  139.0266  163.0462 C.ar    1  UNL1        0.1566
     28 F         138.1155  137.7706  162.2783 F       1  UNL1       -0.2028
     29 C         137.9200  140.3491  162.5293 C.ar    1  UNL1        0.1281
     30 N         138.2079  141.6051  163.2972 N.ar    1  UNL1       -0.2400
     31 C         138.9792  141.5386  164.5819 C.ar    1  UNL1        0.0990
     32 C         139.2672  142.7945  165.3498 C.ar    1  UNL1        0.0254
     33 C         140.0386  142.7280  166.6345 C.ar    1  UNL1        0.0593
     34 C         140.5220  141.4055  167.1514 C.ar    1  UNL1        0.2252
     35 N         140.2341  140.1495  166.3835 N.ar    1  UNL1       -0.2104
     36 C         139.4627  140.2160  165.0988 C.ar    1  UNL1        0.1002
     37 O         141.2934  141.3389  168.4361 O.3     1  UNL1       -0.4509
     38 C         141.8982  142.5844  169.0131 C.3     1  UNL1        0.3095
     39 C         143.3251  142.5804  169.4759 C.3     1  UNL1        0.4381
     40 F         144.7519  142.5764  169.9387 F       1  UNL1       -0.1663
     41 F         142.8623  142.5665  170.9026 F       1  UNL1       -0.1663
     42 F         143.7879  142.5943  168.0492 F       1  UNL1       -0.1663
@<TRIPOS>BOND
     1    12    13    2
     2    13    14    1
     3    14    15    1
     4    15    16    1
     5    16    17   ar
     6    17    18   ar
     7    18    19   ar
     8    19    11    1
     9    11     9    1
    10     9     1    1
    11     1     2    1
    12     2     3    1
    13     3     4    1
    14     4    24    1
    15    24    25    1
    16    25    26    1
    17    26    27   ar
    18    27    28    1
    19    27    29   ar
    20    29    30   ar
    21    30    31   ar
    22    31    32   ar
    23    32    33   ar
    24    33    34   ar
    25    34    37    1
    26    37    38    1
    27    38    39    1
    28    39    40    1
    29    39    41    1
    30    39    42    1
    31    34    35   ar
    32    35    36   ar
    33     4     5    1
    34     5     6    1
    35     4     7    1
    36     7     8    1
    37    19    20   ar
    38    20    21   ar
    39    21    22    1
    40    22    13   am
    41    21    16   ar
    42     6     1    1
    43     8     1    1
    44    36    26   ar
    45    36    31   ar
    46     9    10    1
    47    22    23    1
@<TRIPOS>MOLECULE
*****
 42 47 0 0 0
SMALL
GASTEIGER

@<TRIPOS>ATOM
      1 C         137.9241  140.0708  162.1067 C.3     1  UNL1        0.0700
      2 C         138.0904  141.1658  161.0951 C.3     1  UNL1        0.0193
      3 C         138.0624  142.6006  161.5316 C.3     1  UNL1        0.0286
      4 C         137.8681  142.9405  162.9797 C.3     1  UNL1        0.0932
      5 C         137.7018  141.8454  163.9912 C.3     1  UNL1        0.0286
      6 C         137.7298  140.4106  163.5547 C.3     1  UNL1        0.0193
      7 O         137.8765  142.1397  162.7883 O.3     1  UNL1       -0.3572
      8 C         137.9018  140.8423  162.3936 C.3     1  UNL1        0.1562
      9 N         137.9521  138.6360  161.6702 N.3     1  UNL1       -0.2926
     10 H         137.7407  138.0734  162.4943 H       1  UNL1        0.1236
     11 C         139.1968  138.0614  161.0612 C.3     1  UNL1        0.1152
     12 O         143.8126  138.1889  167.3404 O.2     1  UNL1       -0.2707
     13 C         143.6099  138.4199  165.8722 C.2     1  UNL1        0.2718
     14 C         144.7431  138.9245  165.0289 C.3     1  UNL1        0.2898
     15 O         144.5404  139.1555  163.5607 O.3     1  UNL1       -0.4628
     16 C         143.2045  138.8820  162.9358 C.ar    1  UNL1        0.1708
     17 C         143.0019  139.1131  161.4677 C.ar    1  UNL1        0.0411
     18 C         141.6660  138.8396  160.8428 C.ar    1  UNL1        0.0193
     19 C         140.5327  138.3350  161.6861 C.ar    1  UNL1        0.0765
     20 N         140.7353  138.1039  163.1543 N.ar    1  UNL1       -0.2304
     21 C         142.0713  138.3775  163.7791 C.ar    1  UNL1        0.1682
     22 N         142.2740  138.1464  165.2473 N.am    1  UNL1       -0.2639
     23 H         141.5302  137.8152  165.8008 H       1  UNL1        0.1565
     24 C         137.8401  144.3752  163.4161 C.3     1  UNL1        0.0320
     25 C         138.9403  144.9183  164.2792 C.3     1  UNL1        0.0327
     26 C         140.3611  144.5069  164.0304 C.ar    1  UNL1        0.0261
     27 C         141.0903  145.0202  162.8241 C.ar    1  UNL1        0.1566
     28 F         140.3985  145.9448  161.8667 F       1  UNL1       -0.2028
     29 C         142.5111  144.6088  162.5753 C.ar    1  UNL1        0.1281
     30 N         143.2029  143.6842  163.5327 N.ar    1  UNL1       -0.2400
     31 C         142.4738  143.1710  164.7389 C.ar    1  UNL1        0.0990
     32 C         143.1655  142.2463  165.6962 C.ar    1  UNL1        0.0254
     33 C         142.4364  141.7331  166.9025 C.ar    1  UNL1        0.0593
     34 C         141.0155  142.1444  167.1513 C.ar    1  UNL1        0.2252
     35 N         140.3238  143.0690  166.1939 N.ar    1  UNL1       -0.2104
     36 C         141.0529  143.5823  164.9877 C.ar    1  UNL1        0.1002
     37 O         140.2864  141.6312  168.3575 O.3     1  UNL1       -0.4509
     38 C         140.2605  142.4417  169.6194 C.3     1  UNL1        0.3095
     39 C         141.5125  143.1069  170.1094 C.3     1  UNL1        0.4381
     40 F         142.7644  143.7722  170.5994 F       1  UNL1       -0.1663
     41 F         140.8713  144.4502  169.9237 F       1  UNL1       -0.1663
     42 F         142.1536  141.7637  170.2951 F       1  UNL1       -0.1663
@<TRIPOS>BOND
     1    12    13    2
     2    13    14    1
     3    14    15    1
     4    15    16    1
     5    16    17   ar
     6    17    18   ar
     7    18    19   ar
     8    19    11    1
     9    11     9    1
    10     9     1    1
    11     1     2    1
    12     2     3    1
    13     3     4    1
    14     4    24    1
    15    24    25    1
    16    25    26    1
    17    26    27   ar
    18    27    28    1
    19    27    29   ar
    20    29    30   ar
    21    30    31   ar
    22    31    32   ar
    23    32    33   ar
    24    33    34   ar
    25    34    37    1
    26    37    38    1
    27    38    39    1
    28    39    40    1
    29    39    41    1
    30    39    42    1
    31    34    35   ar
    32    35    36   ar
    33     4     5    1
    34     5     6    1
    35     4     7    1
    36     7     8    1
    37    19    20   ar
    38    20    21   ar
    39    21    22    1
    40    22    13   am
    41    21    16   ar
    42     6     1    1
    43     8     1    1
    44    36    26   ar
    45    36    31   ar
    46     9    10    1
    47    22    23    1
@<TRIPOS>MOLECULE
*****
 42 47 0 0 0
SMALL
GASTEIGER

@<TRIPOS>ATOM
      1 C         139.6817  144.0424  162.1958 C.3     1  UNL1        0.0700
      2 C         139.7768  144.1988  163.6846 C.3     1  UNL1        0.0193
      3 C         141.1025  144.4844  164.3255 C.3     1  UNL1        0.0286
      4 C         142.3332  144.6136  163.4777 C.3     1  UNL1        0.0932
      5 C         142.2381  144.4572  161.9889 C.3     1  UNL1        0.0286
      6 C         140.9123  144.1716  161.3479 C.3     1  UNL1        0.0193
      7 O         141.6289  144.4566  163.0811 O.3     1  UNL1       -0.3572
      8 C         140.4301  144.1983  162.5015 C.3     1  UNL1        0.1562
      9 N         138.3560  143.7568  161.5548 N.3     1  UNL1       -0.2926
     10 H         137.6452  143.8995  162.2723 H       1  UNL1        0.1236
     11 C         138.0919  142.4119  160.9451 C.3     1  UNL1        0.1152
     12 O         137.7367  138.6346  167.7536 O.2     1  UNL1       -0.2707
     13 C         138.0721  138.6484  166.2916 C.2     1  UNL1        0.2718
     14 C         138.6245  137.4169  165.6372 C.3     1  UNL1        0.2898
     15 O         138.9599  137.4307  164.1753 O.3     1  UNL1       -0.4628
     16 C         138.7429  138.6760  163.3677 C.ar    1  UNL1        0.1708
     17 C         139.0783  138.6898  161.9058 C.ar    1  UNL1        0.0411
     18 C         138.8613  139.9351  161.0982 C.ar    1  UNL1        0.0193
     19 C         138.3089  141.1666  161.7526 C.ar    1  UNL1        0.0765
     20 N         137.9735  141.1528  163.2146 N.ar    1  UNL1       -0.2304
     21 C         138.1905  139.9075  164.0221 C.ar    1  UNL1        0.1682
     22 N         137.8551  139.8937  165.4841 N.am    1  UNL1       -0.2639
     23 H         137.4925  140.7019  165.9136 H       1  UNL1        0.1565
     24 C         143.6589  144.8992  164.1186 C.3     1  UNL1        0.0320
     25 C         144.3813  143.8154  164.8626 C.3     1  UNL1        0.0327
     26 C         144.2347  142.3855  164.4341 C.ar    1  UNL1        0.0261
     27 C         144.7064  141.9574  163.0760 C.ar    1  UNL1        0.1566
     28 F         145.3247  142.9593  162.1465 F       1  UNL1       -0.2028
     29 C         144.5598  140.5275  162.6474 C.ar    1  UNL1        0.1281
     30 N         143.9415  139.5255  163.5769 N.ar    1  UNL1       -0.2400
     31 C         143.4698  139.9536  164.9349 C.ar    1  UNL1        0.0990
     32 C         142.8515  138.9516  165.8643 C.ar    1  UNL1        0.0254
     33 C         142.3798  139.3797  167.2224 C.ar    1  UNL1        0.0593
     34 C         142.5264  140.8097  167.6510 C.ar    1  UNL1        0.2252
     35 N         143.1447  141.8116  166.7215 N.ar    1  UNL1       -0.2104
     36 C         143.6164  141.3836  165.3635 C.ar    1  UNL1        0.1002
     37 O         142.0547  141.2377  169.0090 O.3     1  UNL1       -0.4509
     38 C         140.6507  141.7323  169.1939 C.3     1  UNL1        0.3095
     39 C         140.3996  143.1786  169.5025 C.3     1  UNL1        0.4381
     40 F         140.1485  144.6248  169.8112 F       1  UNL1       -0.1663
     41 F         140.4415  142.8726  170.9703 F       1  UNL1       -0.1663
     42 F         140.3577  143.4846  168.0347 F       1  UNL1       -0.1663
@<TRIPOS>BOND
     1    12    13    2
     2    13    14    1
     3    14    15    1
     4    15    16    1
     5    16    17   ar
     6    17    18   ar
     7    18    19   ar
     8    19    11    1
     9    11     9    1
    10     9     1    1
    11     1     2    1
    12     2     3    1
    13     3     4    1
    14     4    24    1
    15    24    25    1
    16    25    26    1
    17    26    27   ar
    18    27    28    1
    19    27    29   ar
    20    29    30   ar
    21    30    31   ar
    22    31    32   ar
    23    32    33   ar
    24    33    34   ar
    25    34    37    1
    26    37    38    1
    27    38    39    1
    28    39    40    1
    29    39    41    1
    30    39    42    1
    31    34    35   ar
    32    35    36   ar
    33     4     5    1
    34     5     6    1
    35     4     7    1
    36     7     8    1
    37    19    20   ar
    38    20    21   ar
    39    21    22    1
    40    22    13   am
    41    21    16   ar
    42     6     1    1
    43     8     1    1
    44    36    26   ar
    45    36    31   ar
    46     9    10    1
    47    22    23    1
@<TRIPOS>MOLECULE
*****
 42 47 0 0 0
SMALL
GASTEIGER

@<TRIPOS>ATOM
      1 C         143.7354  139.1493  163.2434 C.3     1  UNL1        0.0700
      2 C         142.7162  138.6913  162.2428 C.3     1  UNL1        0.0193
      3 C         141.4272  138.0828  162.7100 C.3     1  UNL1        0.0286
      4 C         141.1575  137.9324  164.1779 C.3     1  UNL1        0.0932
      5 C         142.1768  138.3905  165.1786 C.3     1  UNL1        0.0286
      6 C         143.4658  138.9990  164.7113 C.3     1  UNL1        0.0193
      7 O         141.8783  138.2717  163.9699 O.3     1  UNL1       -0.3572
      8 C         143.0438  138.8219  163.5474 C.3     1  UNL1        0.1562
      9 N         145.0244  139.7578  162.7762 N.3     1  UNL1       -0.2926
     10 H         145.7543  139.4183  163.4026 H       1  UNL1        0.1236
     11 C         145.1693  141.2494  162.7106 C.3     1  UNL1        0.1152
     12 O         138.8346  145.7144  161.8822 O.2     1  UNL1       -0.2707
     13 C         140.0293  145.0310  161.2858 C.2     1  UNL1        0.2718
     14 C         140.3071  145.1526  159.8168 C.3     1  UNL1        0.2898
     15 O         141.5018  144.4692  159.2203 O.3     1  UNL1       -0.4628
     16 C         142.4187  143.6642  160.0929 C.ar    1  UNL1        0.1708
     17 C         143.6133  142.9809  159.4964 C.ar    1  UNL1        0.0411
     18 C         144.5302  142.1759  160.3689 C.ar    1  UNL1        0.0193
     19 C         144.2524  142.0543  161.8380 C.ar    1  UNL1        0.0765
     20 N         143.0578  142.7377  162.4345 N.ar    1  UNL1       -0.2304
     21 C         142.1409  143.5427  161.5619 C.ar    1  UNL1        0.1682
     22 N         140.9462  144.2261  162.1583 N.am    1  UNL1       -0.2639
     23 H         140.7639  144.1463  163.1225 H       1  UNL1        0.1565
     24 C         139.8686  137.3239  164.6452 C.3     1  UNL1        0.0320
     25 C         138.6913  138.2023  164.9493 C.3     1  UNL1        0.0327
     26 C         138.6107  139.5792  164.3596 C.ar    1  UNL1        0.0261
     27 C         137.9954  139.7807  163.0064 C.ar    1  UNL1        0.1566
     28 F         137.4608  138.6053  162.2431 F       1  UNL1       -0.2028
     29 C         137.9148  141.1575  162.4167 C.ar    1  UNL1        0.1281
     30 N         138.4494  142.3329  163.1800 N.ar    1  UNL1       -0.2400
     31 C         139.0647  142.1314  164.5331 C.ar    1  UNL1        0.0990
     32 C         139.5993  143.3068  165.2964 C.ar    1  UNL1        0.0254
     33 C         140.2146  143.1053  166.6496 C.ar    1  UNL1        0.0593
     34 C         140.2952  141.7284  167.2393 C.ar    1  UNL1        0.2252
     35 N         139.7606  140.5531  166.4760 N.ar    1  UNL1       -0.2104
     36 C         139.1453  140.7545  165.1229 C.ar    1  UNL1        0.1002
     37 O         140.9105  141.5270  168.5924 O.3     1  UNL1       -0.4509
     38 C         141.1456  142.7039  169.4921 C.3     1  UNL1        0.3095
     39 C         140.0549  143.1792  170.4057 C.3     1  UNL1        0.4381
     40 F         138.9643  143.6544  171.3193 F       1  UNL1       -0.1663
     41 F         139.7426  141.7585  170.7719 F       1  UNL1       -0.1663
     42 F         140.3672  144.5999  170.0396 F       1  UNL1       -0.1663
@<TRIPOS>BOND
     1    12    13    2
     2    13    14    1
     3    14    15    1
     4    15    16    1
     5    16    17   ar
     6    17    18   ar
     7    18    19   ar
     8    19    11    1
     9    11     9    1
    10     9     1    1
    11     1     2    1
    12     2     3    1
    13     3     4    1
    14     4    24    1
    15    24    25    1
    16    25    26    1
    17    26    27   ar
    18    27    28    1
    19    27    29   ar
    20    29    30   ar
    21    30    31   ar
    22    31    32   ar
    23    32    33   ar
    24    33    34   ar
    25    34    37    1
    26    37    38    1
    27    38    39    1
    28    39    40    1
    29    39    41    1
    30    39    42    1
    31    34    35   ar
    32    35    36   ar
    33     4     5    1
    34     5     6    1
    35     4     7    1
    36     7     8    1
    37    19    20   ar
    38    20    21   ar
    39    21    22    1
    40    22    13   am
    41    21    16   ar
    42     6     1    1
    43     8     1    1
    44    36    26   ar
    45    36    31   ar
    46     9    10    1
    47    22    23    1
@<TRIPOS>MOLECULE
*****
 42 47 0 0 0
SMALL
GASTEIGER

@<TRIPOS>ATOM
      1 C         143.3620  138.9851  161.1638 C.3     1  UNL1        0.0700
      2 C         143.7941  140.2911  160.5656 C.3     1  UNL1        0.0193
      3 C         144.5959  141.2610  161.3818 C.3     1  UNL1        0.0286
      4 C         144.9657  140.9251  162.7962 C.3     1  UNL1        0.0932
      5 C         144.5336  139.6192  163.3944 C.3     1  UNL1        0.0286
      6 C         143.7317  138.6492  162.5781 C.3     1  UNL1        0.0193
      7 O         144.5252  140.3618  162.3881 O.3     1  UNL1       -0.3572
      8 C         143.8001  139.4847  161.6501 C.3     1  UNL1        0.1562
      9 N         142.5601  138.0151  160.3477 N.3     1  UNL1       -0.2926
     10 H         143.0541  137.8956  159.4633 H       1  UNL1        0.1236
     11 C         141.1317  138.3221  160.0078 C.3     1  UNL1        0.1152
     12 O         137.7646  144.8613  162.5868 O.2     1  UNL1       -0.2707
     13 C         138.0146  143.3884  162.7218 C.2     1  UNL1        0.2718
     14 C         137.3922  142.6225  163.8513 C.3     1  UNL1        0.2898
     15 O         137.6422  141.1496  163.9863 O.3     1  UNL1       -0.4628
     16 C         138.5146  140.4427  162.9917 C.ar    1  UNL1        0.1708
     17 C         138.7646  138.9699  163.1266 C.ar    1  UNL1        0.0411
     18 C         139.6369  138.2630  162.1320 C.ar    1  UNL1        0.0193
     19 C         140.2593  139.0290  161.0024 C.ar    1  UNL1        0.0765
     20 N         140.0093  140.5018  160.8675 N.ar    1  UNL1       -0.2304
     21 C         139.1369  141.2087  161.8621 C.ar    1  UNL1        0.1682
     22 N         138.8869  142.6816  161.7272 N.am    1  UNL1       -0.2639
     23 H         139.2954  143.1843  160.9858 H       1  UNL1        0.1565
     24 C         145.7676  141.8951  163.6123 C.3     1  UNL1        0.0320
     25 C         145.1032  142.6937  164.6943 C.3     1  UNL1        0.0327
     26 C         143.6755  143.1265  164.5380 C.ar    1  UNL1        0.0261
     27 C         143.2983  144.0890  163.4511 C.ar    1  UNL1        0.1566
     28 F         144.3487  144.6186  162.5205 F       1  UNL1       -0.2028
     29 C         141.8706  144.5218  163.2948 C.ar    1  UNL1        0.1281
     30 N         140.8202  143.9921  164.2254 N.ar    1  UNL1       -0.2400
     31 C         141.1974  143.0296  165.3123 C.ar    1  UNL1        0.0990
     32 C         140.1469  142.5000  166.2429 C.ar    1  UNL1        0.0254
     33 C         140.5242  141.5375  167.3298 C.ar    1  UNL1        0.0593
     34 C         141.9518  141.1047  167.4861 C.ar    1  UNL1        0.2252
     35 N         143.0023  141.6344  166.5555 N.ar    1  UNL1       -0.2104
     36 C         142.6251  142.5968  165.4686 C.ar    1  UNL1        0.1002
     37 O         142.3290  140.1423  168.5730 O.3     1  UNL1       -0.4509
     38 C         142.7709  140.6572  169.9107 C.3     1  UNL1        0.3095
     39 C         142.7887  142.1333  170.1776 C.3     1  UNL1        0.4381
     40 F         142.8064  143.6092  170.4445 F       1  UNL1       -0.1663
     41 F         144.2083  142.2028  169.6985 F       1  UNL1       -0.1663
     42 F         141.3690  142.0637  170.6567 F       1  UNL1       -0.1663
@<TRIPOS>BOND
     1    12    13    2
     2    13    14    1
     3    14    15    1
     4    15    16    1
     5    16    17   ar
     6    17    18   ar
     7    18    19   ar
     8    19    11    1
     9    11     9    1
    10     9     1    1
    11     1     2    1
    12     2     3    1
    13     3     4    1
    14     4    24    1
    15    24    25    1
    16    25    26    1
    17    26    27   ar
    18    27    28    1
    19    27    29   ar
    20    29    30   ar
    21    30    31   ar
    22    31    32   ar
    23    32    33   ar
    24    33    34   ar
    25    34    37    1
    26    37    38    1
    27    38    39    1
    28    39    40    1
    29    39    41    1
    30    39    42    1
    31    34    35   ar
    32    35    36   ar
    33     4     5    1
    34     5     6    1
    35     4     7    1
    36     7     8    1
    37    19    20   ar
    38    20    21   ar
    39    21    22    1
    40    22    13   am
    41    21    16   ar
    42     6     1    1
    43     8     1    1
    44    36    26   ar
    45    36    31   ar
    46     9    10    1
    47    22    23    1
@<TRIPOS>MOLECULE
*****
 42 47 0 0 0
SMALL
GASTEIGER

@<TRIPOS>ATOM
      1 C         143.4144  139.6290  161.9531 C.3     1  UNL1        0.0700
      2 C         142.8684  140.9524  161.5051 C.3     1  UNL1        0.0193
      3 C         141.5040  141.0303  160.8868 C.3     1  UNL1        0.0286
      4 C         140.6855  139.7848  160.7165 C.3     1  UNL1        0.0932
      5 C         141.2315  138.4614  161.1644 C.3     1  UNL1        0.0286
      6 C         142.5960  138.3836  161.7827 C.3     1  UNL1        0.0193
      7 O         141.4278  139.6922  161.0606 O.3     1  UNL1       -0.3572
      8 C         142.6615  139.6218  161.6197 C.3     1  UNL1        0.1562
      9 N         144.7788  139.5511  162.5713 N.3     1  UNL1       -0.2926
     10 H         145.2256  138.7153  162.1943 H       1  UNL1        0.1236
     11 C         144.9236  139.4843  164.0629 C.3     1  UNL1        0.1152
     12 O         139.1005  139.7968  169.2343 O.2     1  UNL1       -0.2707
     13 C         140.1264  140.4925  168.3895 C.2     1  UNL1        0.2718
     14 C         140.2371  141.9880  168.4237 C.3     1  UNL1        0.2898
     15 O         141.2629  142.6836  167.5789 O.3     1  UNL1       -0.4628
     16 C         142.1781  141.8838  166.6999 C.ar    1  UNL1        0.1708
     17 C         143.2040  142.5795  165.8551 C.ar    1  UNL1        0.0411
     18 C         144.1191  141.7796  164.9761 C.ar    1  UNL1        0.0193
     19 C         144.0085  140.2841  164.9419 C.ar    1  UNL1        0.0765
     20 N         142.9826  139.5884  165.7867 N.ar    1  UNL1       -0.2304
     21 C         142.0674  140.3883  166.6657 C.ar    1  UNL1        0.1682
     22 N         141.0416  139.6927  167.5105 N.am    1  UNL1       -0.2639
     23 H         140.9689  138.7111  167.4880 H       1  UNL1        0.1565
     24 C         139.3211  139.8627  160.0982 C.3     1  UNL1        0.0320
     25 C         138.1249  140.1537  160.9552 C.3     1  UNL1        0.0327
     26 C         138.2776  140.2659  162.4431 C.ar    1  UNL1        0.0261
     27 C         138.3069  139.0279  163.2896 C.ar    1  UNL1        0.1566
     28 F         138.1834  137.6776  162.6481 F       1  UNL1       -0.2028
     29 C         138.4597  139.1402  164.7775 C.ar    1  UNL1        0.1281
     30 N         138.5832  140.4904  165.4191 N.ar    1  UNL1       -0.2400
     31 C         138.5539  141.7284  164.5727 C.ar    1  UNL1        0.0990
     32 C         138.6773  143.0787  165.2142 C.ar    1  UNL1        0.0254
     33 C         138.6481  144.3167  164.3677 C.ar    1  UNL1        0.0593
     34 C         138.4953  144.2044  162.8797 C.ar    1  UNL1        0.2252
     35 N         138.3718  142.8542  162.2382 N.ar    1  UNL1       -0.2104
     36 C         138.4011  141.6162  163.0846 C.ar    1  UNL1        0.1002
     37 O         138.4660  145.4424  162.0333 O.3     1  UNL1       -0.4509
     38 C         139.7502  146.0844  161.5988 C.3     1  UNL1        0.3095
     39 C         141.0364  145.3165  161.6763 C.3     1  UNL1        0.4381
     40 F         142.3226  144.5486  161.7539 F       1  UNL1       -0.1663
     41 F         140.7345  144.6772  160.3534 F       1  UNL1       -0.1663
     42 F         141.3383  145.9557  162.9992 F       1  UNL1       -0.1663
@<TRIPOS>BOND
     1    12    13    2
     2    13    14    1
     3    14    15    1
     4    15    16    1
     5    16    17   ar
     6    17    18   ar
     7    18    19   ar
     8    19    11    1
     9    11     9    1
    10     9     1    1
    11     1     2    1
    12     2     3    1
    13     3     4    1
    14     4    24    1
    15    24    25    1
    16    25    26    1
    17    26    27   ar
    18    27    28    1
    19    27    29   ar
    20    29    30   ar
    21    30    31   ar
    22    31    32   ar
    23    32    33   ar
    24    33    34   ar
    25    34    37    1
    26    37    38    1
    27    38    39    1
    28    39    40    1
    29    39    41    1
    30    39    42    1
    31    34    35   ar
    32    35    36   ar
    33     4     5    1
    34     5     6    1
    35     4     7    1
    36     7     8    1
    37    19    20   ar
    38    20    21   ar
    39    21    22    1
    40    22    13   am
    41    21    16   ar
    42     6     1    1
    43     8     1    1
    44    36    26   ar
    45    36    31   ar
    46     9    10    1
    47    22    23    1
@<TRIPOS>MOLECULE
*****
 42 47 0 0 0
SMALL
GASTEIGER

@<TRIPOS>ATOM
      1 C         141.4979  144.6639  163.0294 C.3     1  UNL1        0.0700
      2 C         140.8865  144.2826  161.7138 C.3     1  UNL1        0.0193
      3 C         139.6017  143.5093  161.6798 C.3     1  UNL1        0.0286
      4 C         138.9281  143.1173  162.9616 C.3     1  UNL1        0.0932
      5 C         139.5395  143.4986  164.2772 C.3     1  UNL1        0.0286
      6 C         140.8244  144.2720  164.3111 C.3     1  UNL1        0.0193
      7 O         139.6309  143.5408  163.0306 O.3     1  UNL1       -0.3572
      8 C         140.7927  144.2400  163.0613 C.3     1  UNL1        0.1562
      9 N         142.7827  145.4372  163.0634 N.3     1  UNL1       -0.2926
     10 H         142.8408  145.9504  162.1838 H       1  UNL1        0.1236
     11 C         144.0876  144.7167  163.2315 C.3     1  UNL1        0.1152
     12 O         143.3386  138.3562  158.7892 O.2     1  UNL1       -0.2707
     13 C         143.6471  138.9855  160.1154 C.2     1  UNL1        0.2718
     14 C         144.0144  138.1240  161.2871 C.3     1  UNL1        0.2898
     15 O         144.3229  138.7533  162.6133 O.3     1  UNL1       -0.4628
     16 C         144.2641  140.2441  162.7678 C.ar    1  UNL1        0.1708
     17 C         144.5726  140.8734  164.0940 C.ar    1  UNL1        0.0411
     18 C         144.5138  142.3642  164.2486 C.ar    1  UNL1        0.0193
     19 C         144.1464  143.2258  163.0769 C.ar    1  UNL1        0.0765
     20 N         143.8379  142.5965  161.7507 N.ar    1  UNL1       -0.2304
     21 C         143.8967  141.1056  161.5962 C.ar    1  UNL1        0.1682
     22 N         143.5882  140.4763  160.2700 N.am    1  UNL1       -0.2639
     23 H         143.3471  141.0418  159.5010 H       1  UNL1        0.1565
     24 C         137.6433  142.3440  162.9276 C.3     1  UNL1        0.0320
     25 C         137.5607  140.9976  163.5837 C.3     1  UNL1        0.0327
     26 C         138.4477  139.8810  163.1187 C.ar    1  UNL1        0.0261
     27 C         138.1582  139.1831  161.8229 C.ar    1  UNL1        0.1566
     28 F         136.9816  139.6019  160.9921 F       1  UNL1       -0.2028
     29 C         139.0452  138.0664  161.3579 C.ar    1  UNL1        0.1281
     30 N         140.2218  137.6476  162.1887 N.ar    1  UNL1       -0.2400
     31 C         140.5114  138.3455  163.4845 C.ar    1  UNL1        0.0990
     32 C         141.6880  137.9267  164.3153 C.ar    1  UNL1        0.0254
     33 C         141.9775  138.6246  165.6112 C.ar    1  UNL1        0.0593
     34 C         141.0905  139.7412  166.0761 C.ar    1  UNL1        0.2252
     35 N         139.9139  140.1600  165.2453 N.ar    1  UNL1       -0.2104
     36 C         139.6243  139.4622  163.9495 C.ar    1  UNL1        0.1002
     37 O         141.3801  140.4391  167.3719 O.3     1  UNL1       -0.4509
     38 C         141.6918  141.9063  167.3803 C.3     1  UNL1        0.3095
     39 C         141.9007  142.6212  168.6824 C.3     1  UNL1        0.4381
     40 F         142.1096  143.3361  169.9844 F       1  UNL1       -0.1663
     41 F         143.3434  142.2107  168.6763 F       1  UNL1       -0.1663
     42 F         140.4580  143.0318  168.6884 F       1  UNL1       -0.1663
@<TRIPOS>BOND
     1    12    13    2
     2    13    14    1
     3    14    15    1
     4    15    16    1
     5    16    17   ar
     6    17    18   ar
     7    18    19   ar
     8    19    11    1
     9    11     9    1
    10     9     1    1
    11     1     2    1
    12     2     3    1
    13     3     4    1
    14     4    24    1
    15    24    25    1
    16    25    26    1
    17    26    27   ar
    18    27    28    1
    19    27    29   ar
    20    29    30   ar
    21    30    31   ar
    22    31    32   ar
    23    32    33   ar
    24    33    34   ar
    25    34    37    1
    26    37    38    1
    27    38    39    1
    28    39    40    1
    29    39    41    1
    30    39    42    1
    31    34    35   ar
    32    35    36   ar
    33     4     5    1
    34     5     6    1
    35     4     7    1
    36     7     8    1
    37    19    20   ar
    38    20    21   ar
    39    21    22    1
    40    22    13   am
    41    21    16   ar
    42     6     1    1
    43     8     1    1
    44    36    26   ar
    45    36    31   ar
    46     9    10    1
    47    22    23    1
