@<TRIPOS>MOLECULE
*****
 21 23 0 0 0
SMALL
GASTEIGER

@<TRIPOS>ATOM
      1 C         140.4720  140.7440  168.7957 C.ar    1  UNL1        0.1378
      2 N         139.2417  139.8968  168.6601 N.ar    1  UNL1       -0.1770
      3 C         138.7861  139.4477  167.3033 C.ar    1  UNL1        0.3551
      4 O         137.5557  138.6004  167.1677 O.2     1  UNL1       -0.2440
      5 N         139.5608  139.8459  166.0822 N.ar    1  UNL1       -0.2588
      6 C         140.7912  140.6933  166.2178 C.ar    1  UNL1        0.0717
      7 C         141.5659  141.0915  164.9967 C.ar    1  UNL1        0.0291
      8 C         142.7962  141.9388  165.1323 C.ar    1  UNL1        0.0591
      9 CL        143.5710  142.3370  163.9111 Cl      1  UNL1       -0.0822
     10 C         143.2518  142.3878  166.4890 C.ar    1  UNL1        0.0116
     11 C         142.4771  141.9896  167.7102 C.ar    1  UNL1        0.0051
     12 C         141.2468  141.1423  167.5745 C.ar    1  UNL1        0.0480
     13 C         139.1052  139.3969  164.7254 C.ar    1  UNL1        0.0683
     14 C         139.5033  138.0458  164.2098 C.ar    1  UNL1        0.0177
     15 C         139.0477  137.5967  162.8530 C.ar    1  UNL1        0.0015
     16 C         138.1940  138.4988  162.0119 C.ar    1  UNL1        0.0001
     17 C         137.7959  139.8500  162.5276 C.ar    1  UNL1        0.0015
     18 C         138.2515  140.2991  163.8843 C.ar    1  UNL1        0.0177
     19 C         141.9961  140.4284  170.8759 C.3     1  UNL1        0.1136
     20 N         140.9276  141.1931  170.1525 N.pl3   1  UNL1       -0.2896
     21 C         140.3146  142.4069  170.7858 C.3     1  UNL1        0.1136
@<TRIPOS>BOND
     1    19    20    1
     2    20    21    1
     3    20     1    1
     4     1     2   ar
     5     2     3   ar
     6     3     4    2
     7     3     5   ar
     8     5    13    1
     9    13    14   ar
    10    14    15   ar
    11    15    16   ar
    12    16    17   ar
    13    17    18   ar
    14     5     6   ar
    15     6     7   ar
    16     7     8   ar
    17     8     9    1
    18     8    10   ar
    19    10    11   ar
    20    11    12   ar
    21    12     1   ar
    22    18    13   ar
    23    12     6   ar
@<TRIPOS>MOLECULE
*****
 21 23 0 0 0
SMALL
GASTEIGER

@<TRIPOS>ATOM
      1 C         139.7276  144.0334  161.8455 C.ar    1  UNL1        0.1378
      2 N         138.5181  143.1952  161.5549 N.ar    1  UNL1       -0.1770
      3 C         138.2771  141.9328  162.3284 C.ar    1  UNL1        0.3551
      4 O         137.0675  141.0945  162.0378 O.2     1  UNL1       -0.2440
      5 N         139.2456  141.5086  163.3924 N.ar    1  UNL1       -0.2588
      6 C         140.4551  142.3468  163.6830 C.ar    1  UNL1        0.0717
      7 C         141.4236  141.9227  164.7470 C.ar    1  UNL1        0.0291
      8 C         142.6331  142.7609  165.0375 C.ar    1  UNL1        0.0591
      9 CL        143.6016  142.3367  166.1015 Cl      1  UNL1       -0.0822
     10 C         142.8741  144.0233  164.2640 C.ar    1  UNL1        0.0116
     11 C         141.9057  144.4475  163.2000 C.ar    1  UNL1        0.0051
     12 C         140.6962  143.6092  162.9095 C.ar    1  UNL1        0.0480
     13 C         139.0045  140.2462  164.1659 C.ar    1  UNL1        0.0683
     14 C         139.4846  138.9320  163.6251 C.ar    1  UNL1        0.0177
     15 C         139.2436  137.6696  164.3986 C.ar    1  UNL1        0.0015
     16 C         138.5224  137.7214  165.7128 C.ar    1  UNL1        0.0001
     17 C         138.0423  139.0356  166.2536 C.ar    1  UNL1        0.0015
     18 C         138.2833  140.2980  165.4802 C.ar    1  UNL1        0.0177
     19 C         139.5324  146.6156  161.6356 C.3     1  UNL1        0.1136
     20 N         139.9687  145.2958  161.0720 N.pl3   1  UNL1       -0.2896
     21 C         140.6460  145.2383  159.7348 C.3     1  UNL1        0.1136
@<TRIPOS>BOND
     1    19    20    1
     2    20    21    1
     3    20     1    1
     4     1     2   ar
     5     2     3   ar
     6     3     4    2
     7     3     5   ar
     8     5    13    1
     9    13    14   ar
    10    14    15   ar
    11    15    16   ar
    12    16    17   ar
    13    17    18   ar
    14     5     6   ar
    15     6     7   ar
    16     7     8   ar
    17     8     9    1
    18     8    10   ar
    19    10    11   ar
    20    11    12   ar
    21    12     1   ar
    22    18    13   ar
    23    12     6   ar
@<TRIPOS>MOLECULE
*****
 21 23 0 0 0
SMALL
GASTEIGER

@<TRIPOS>ATOM
      1 C         139.4942  140.0695  164.1867 C.ar    1  UNL1        0.1378
      2 N         139.1561  139.5192  165.5405 N.ar    1  UNL1       -0.1770
      3 C         139.7563  140.1326  166.7708 C.ar    1  UNL1        0.3551
      4 O         139.4182  139.5822  168.1246 O.2     1  UNL1       -0.2440
      5 N         140.6945  141.2964  166.6472 N.ar    1  UNL1       -0.2588
      6 C         141.0326  141.8468  165.2934 C.ar    1  UNL1        0.0717
      7 C         141.9708  143.0106  165.1699 C.ar    1  UNL1        0.0291
      8 C         142.3089  143.5610  163.8161 C.ar    1  UNL1        0.0591
      9 CL        143.2472  144.7248  163.6925 Cl      1  UNL1       -0.0822
     10 C         141.7087  142.9475  162.5858 C.ar    1  UNL1        0.0116
     11 C         140.7705  141.7838  162.7094 C.ar    1  UNL1        0.0051
     12 C         140.4324  141.2334  164.0631 C.ar    1  UNL1        0.0480
     13 C         141.2946  141.9098  167.8775 C.ar    1  UNL1        0.0683
     14 C         142.6696  141.5074  168.3218 C.ar    1  UNL1        0.0177
     15 C         143.2698  142.1208  169.5521 C.ar    1  UNL1        0.0015
     16 C         142.4949  143.1367  170.3380 C.ar    1  UNL1        0.0001
     17 C         141.1199  143.5391  169.8937 C.ar    1  UNL1        0.0015
     18 C         140.5197  142.9257  168.6634 C.ar    1  UNL1        0.0177
     19 C         139.4714  138.1928  162.3903 C.3     1  UNL1        0.1136
     20 N         138.8940  139.4561  162.9565 N.pl3   1  UNL1       -0.2896
     21 C         137.7164  140.1061  162.2924 C.3     1  UNL1        0.1136
@<TRIPOS>BOND
     1    19    20    1
     2    20    21    1
     3    20     1    1
     4     1     2   ar
     5     2     3   ar
     6     3     4    2
     7     3     5   ar
     8     5    13    1
     9    13    14   ar
    10    14    15   ar
    11    15    16   ar
    12    16    17   ar
    13    17    18   ar
    14     5     6   ar
    15     6     7   ar
    16     7     8   ar
    17     8     9    1
    18     8    10   ar
    19    10    11   ar
    20    11    12   ar
    21    12     1   ar
    22    18    13   ar
    23    12     6   ar
@<TRIPOS>MOLECULE
*****
 21 23 0 0 0
SMALL
GASTEIGER

@<TRIPOS>ATOM
      1 C         142.4430  139.6570  163.9789 C.ar    1  UNL1        0.1378
      2 N         143.0394  139.2096  165.2804 N.ar    1  UNL1       -0.1770
      3 C         142.4766  139.7140  166.5761 C.ar    1  UNL1        0.3551
      4 O         143.0731  139.2665  167.8777 O.2     1  UNL1       -0.2440
      5 N         141.3173  140.6658  166.5702 N.ar    1  UNL1       -0.2588
      6 C         140.7208  141.1132  165.2687 C.ar    1  UNL1        0.0717
      7 C         139.5615  142.0650  165.2628 C.ar    1  UNL1        0.0291
      8 C         138.9650  142.5124  163.9613 C.ar    1  UNL1        0.0591
      9 CL        137.8057  143.4643  163.9554 Cl      1  UNL1       -0.0822
     10 C         139.5279  142.0080  162.6656 C.ar    1  UNL1        0.0116
     11 C         140.6872  141.0562  162.6714 C.ar    1  UNL1        0.0051
     12 C         141.2836  140.6088  163.9730 C.ar    1  UNL1        0.0480
     13 C         140.7545  141.1702  167.8659 C.ar    1  UNL1        0.0683
     14 C         141.1746  142.5092  168.3954 C.ar    1  UNL1        0.0177
     15 C         140.6118  143.0136  169.6911 C.ar    1  UNL1        0.0015
     16 C         139.6288  142.1789  170.4573 C.ar    1  UNL1        0.0001
     17 C         139.2086  140.8398  169.9278 C.ar    1  UNL1        0.0015
     18 C         139.7714  140.3355  168.6321 C.ar    1  UNL1        0.0177
     19 C         144.1480  139.8732  162.0305 C.3     1  UNL1        0.1136
     20 N         143.0058  139.1526  162.6832 N.pl3   1  UNL1       -0.2896
     21 C         142.4264  137.9275  162.0401 C.3     1  UNL1        0.1136
@<TRIPOS>BOND
     1    19    20    1
     2    20    21    1
     3    20     1    1
     4     1     2   ar
     5     2     3   ar
     6     3     4    2
     7     3     5   ar
     8     5    13    1
     9    13    14   ar
    10    14    15   ar
    11    15    16   ar
    12    16    17   ar
    13    17    18   ar
    14     5     6   ar
    15     6     7   ar
    16     7     8   ar
    17     8     9    1
    18     8    10   ar
    19    10    11   ar
    20    11    12   ar
    21    12     1   ar
    22    18    13   ar
    23    12     6   ar
@<TRIPOS>MOLECULE
*****
 21 23 0 0 0
SMALL
GASTEIGER

@<TRIPOS>ATOM
      1 C         142.0288  140.8330  168.6519 C.ar    1  UNL1        0.1378
      2 N         142.8855  139.6143  168.4771 N.ar    1  UNL1       -0.1770
      3 C         143.1100  139.0454  167.1075 C.ar    1  UNL1        0.3551
      4 O         143.9668  137.8265  166.9328 O.2     1  UNL1       -0.2440
      5 N         142.4777  139.6952  165.9126 N.ar    1  UNL1       -0.2588
      6 C         141.6209  140.9140  166.0873 C.ar    1  UNL1        0.0717
      7 C         140.9886  141.5639  164.8924 C.ar    1  UNL1        0.0291
      8 C         140.1318  142.7826  165.0671 C.ar    1  UNL1        0.0591
      9 CL        139.4995  143.4325  163.8722 Cl      1  UNL1       -0.0822
     10 C         139.9074  143.3515  166.4368 C.ar    1  UNL1        0.0116
     11 C         140.5397  142.7017  167.6317 C.ar    1  UNL1        0.0051
     12 C         141.3964  141.4829  167.4569 C.ar    1  UNL1        0.0480
     13 C         142.7021  139.1263  164.5429 C.ar    1  UNL1        0.0683
     14 C         141.7011  138.1790  163.9510 C.ar    1  UNL1        0.0177
     15 C         141.9256  137.6101  162.5813 C.ar    1  UNL1        0.0015
     16 C         143.1511  137.9885  161.8036 C.ar    1  UNL1        0.0001
     17 C         144.1522  138.9359  162.3955 C.ar    1  UNL1        0.0015
     18 C         143.9277  139.5048  163.7652 C.ar    1  UNL1        0.0177
     19 C         140.7612  140.8058  170.9196 C.3     1  UNL1        0.1136
     20 N         141.8043  141.4019  170.0216 N.pl3   1  UNL1       -0.2896
     21 C         142.6230  142.5670  170.4932 C.3     1  UNL1        0.1136
@<TRIPOS>BOND
     1    19    20    1
     2    20    21    1
     3    20     1    1
     4     1     2   ar
     5     2     3   ar
     6     3     4    2
     7     3     5   ar
     8     5    13    1
     9    13    14   ar
    10    14    15   ar
    11    15    16   ar
    12    16    17   ar
    13    17    18   ar
    14     5     6   ar
    15     6     7   ar
    16     7     8   ar
    17     8     9    1
    18     8    10   ar
    19    10    11   ar
    20    11    12   ar
    21    12     1   ar
    22    18    13   ar
    23    12     6   ar
@<TRIPOS>MOLECULE
*****
 21 23 0 0 0
SMALL
GASTEIGER

@<TRIPOS>ATOM
      1 C         143.1387  142.1891  164.8609 C.ar    1  UNL1        0.1378
      2 N         143.4432  140.7890  165.3045 N.ar    1  UNL1       -0.1770
      3 C         142.3261  139.8631  165.6851 C.ar    1  UNL1        0.3551
      4 O         142.6306  138.4629  166.1287 O.2     1  UNL1       -0.2440
      5 N         140.9045  140.3374  165.6222 N.ar    1  UNL1       -0.2588
      6 C         140.5999  141.7377  165.1786 C.ar    1  UNL1        0.0717
      7 C         139.1783  142.2120  165.1156 C.ar    1  UNL1        0.0291
      8 C         138.8738  143.6121  164.6720 C.ar    1  UNL1        0.0591
      9 CL        137.4521  144.0865  164.6090 Cl      1  UNL1       -0.0822
     10 C         139.9909  144.5379  164.2914 C.ar    1  UNL1        0.0116
     11 C         141.4125  144.0636  164.3543 C.ar    1  UNL1        0.0051
     12 C         141.7170  142.6635  164.7979 C.ar    1  UNL1        0.0480
     13 C         139.7874  139.4116  166.0028 C.ar    1  UNL1        0.0683
     14 C         139.4663  138.2285  165.1385 C.ar    1  UNL1        0.0177
     15 C         138.3492  137.3026  165.5191 C.ar    1  UNL1        0.0015
     16 C         137.5531  137.5599  166.7641 C.ar    1  UNL1        0.0001
     17 C         137.8742  138.7431  167.6285 C.ar    1  UNL1        0.0015
     18 C         138.9913  139.6689  167.2479 C.ar    1  UNL1        0.0177
     19 C         144.8847  143.9976  165.5173 C.3     1  UNL1        0.1136
     20 N         144.2558  143.1150  164.4803 N.pl3   1  UNL1       -0.2896
     21 C         144.7440  143.1582  163.0626 C.3     1  UNL1        0.1136
@<TRIPOS>BOND
     1    19    20    1
     2    20    21    1
     3    20     1    1
     4     1     2   ar
     5     2     3   ar
     6     3     4    2
     7     3     5   ar
     8     5    13    1
     9    13    14   ar
    10    14    15   ar
    11    15    16   ar
    12    16    17   ar
    13    17    18   ar
    14     5     6   ar
    15     6     7   ar
    16     7     8   ar
    17     8     9    1
    18     8    10   ar
    19    10    11   ar
    20    11    12   ar
    21    12     1   ar
    22    18    13   ar
    23    12     6   ar
@<TRIPOS>MOLECULE
*****
 21 23 0 0 0
SMALL
GASTEIGER

@<TRIPOS>ATOM
      1 C         141.1482  141.6292  168.7618 C.ar    1  UNL1        0.1378
      2 N         142.3832  142.4256  168.4609 N.ar    1  UNL1       -0.1770
      3 C         143.0126  142.3486  167.1015 C.ar    1  UNL1        0.3551
      4 O         144.2476  143.1451  166.8007 O.2     1  UNL1       -0.2440
      5 N         142.4071  141.4752  166.0430 N.ar    1  UNL1       -0.2588
      6 C         141.1720  140.6788  166.3439 C.ar    1  UNL1        0.0717
      7 C         140.5665  139.8054  165.2854 C.ar    1  UNL1        0.0291
      8 C         139.3315  139.0090  165.5862 C.ar    1  UNL1        0.0591
      9 CL        138.7259  138.1356  164.5277 Cl      1  UNL1       -0.0822
     10 C         138.7021  139.0860  166.9456 C.ar    1  UNL1        0.0116
     11 C         139.3076  139.9594  168.0041 C.ar    1  UNL1        0.0051
     12 C         140.5426  140.7558  167.7032 C.ar    1  UNL1        0.0480
     13 C         143.0365  141.3983  164.6837 C.ar    1  UNL1        0.0683
     14 C         144.1402  140.4167  164.4227 C.ar    1  UNL1        0.0177
     15 C         144.7697  140.3397  163.0633 C.ar    1  UNL1        0.0015
     16 C         144.2953  141.2443  161.9649 C.ar    1  UNL1        0.0001
     17 C         143.1915  142.2260  162.2258 C.ar    1  UNL1        0.0015
     18 C         142.5621  142.3029  163.5852 C.ar    1  UNL1        0.0177
     19 C         139.7530  142.9311  170.5248 C.3     1  UNL1        0.1136
     20 N         140.5188  141.7062  170.1212 N.pl3   1  UNL1       -0.2896
     21 C         140.6553  140.5582  171.0769 C.3     1  UNL1        0.1136
@<TRIPOS>BOND
     1    19    20    1
     2    20    21    1
     3    20     1    1
     4     1     2   ar
     5     2     3   ar
     6     3     4    2
     7     3     5   ar
     8     5    13    1
     9    13    14   ar
    10    14    15   ar
    11    15    16   ar
    12    16    17   ar
    13    17    18   ar
    14     5     6   ar
    15     6     7   ar
    16     7     8   ar
    17     8     9    1
    18     8    10   ar
    19    10    11   ar
    20    11    12   ar
    21    12     1   ar
    22    18    13   ar
    23    12     6   ar
@<TRIPOS>MOLECULE
*****
 21 23 0 0 0
SMALL
GASTEIGER

@<TRIPOS>ATOM
      1 C         139.2219  139.4804  165.8133 C.ar    1  UNL1        0.1378
      2 N         139.5679  139.7137  164.3725 N.ar    1  UNL1       -0.1770
      3 C         140.4249  140.8828  163.9868 C.ar    1  UNL1        0.3551
      4 O         140.7709  141.1161  162.5459 O.2     1  UNL1       -0.2440
      5 N         140.9360  141.8186  165.0418 N.ar    1  UNL1       -0.2588
      6 C         140.5900  141.5853  166.4826 C.ar    1  UNL1        0.0717
      7 C         141.1011  142.5211  167.5377 C.ar    1  UNL1        0.0291
      8 C         140.7551  142.2878  168.9784 C.ar    1  UNL1        0.0591
      9 CL        141.2661  143.2236  170.0335 Cl      1  UNL1       -0.0822
     10 C         139.8980  141.1187  169.3641 C.ar    1  UNL1        0.0116
     11 C         139.3870  140.1829  168.3091 C.ar    1  UNL1        0.0051
     12 C         139.7330  140.4162  166.8684 C.ar    1  UNL1        0.0480
     13 C         141.7930  142.9876  164.6560 C.ar    1  UNL1        0.0683
     14 C         141.1565  144.2582  164.1761 C.ar    1  UNL1        0.0177
     15 C         142.0135  145.4273  163.7904 C.ar    1  UNL1        0.0015
     16 C         143.5071  145.3258  163.8846 C.ar    1  UNL1        0.0001
     17 C         144.1437  144.0551  164.3645 C.ar    1  UNL1        0.0015
     18 C         143.2867  142.8861  164.7503 C.ar    1  UNL1        0.0177
     19 C         138.5227  136.9993  165.4895 C.3     1  UNL1        0.1136
     20 N         138.3649  138.3114  166.1990 N.pl3   1  UNL1       -0.2896
     21 C         137.3501  138.4544  167.2943 C.3     1  UNL1        0.1136
@<TRIPOS>BOND
     1    19    20    1
     2    20    21    1
     3    20     1    1
     4     1     2   ar
     5     2     3   ar
     6     3     4    2
     7     3     5   ar
     8     5    13    1
     9    13    14   ar
    10    14    15   ar
    11    15    16   ar
    12    16    17   ar
    13    17    18   ar
    14     5     6   ar
    15     6     7   ar
    16     7     8   ar
    17     8     9    1
    18     8    10   ar
    19    10    11   ar
    20    11    12   ar
    21    12     1   ar
    22    18    13   ar
    23    12     6   ar
@<TRIPOS>MOLECULE
*****
 21 23 0 0 0
SMALL
GASTEIGER

@<TRIPOS>ATOM
      1 C         140.7200  138.7933  160.6973 C.ar    1  UNL1        0.1378
      2 N         141.1022  137.7287  161.6824 N.ar    1  UNL1       -0.1770
      3 C         140.7696  137.8970  163.1353 C.ar    1  UNL1        0.3551
      4 O         141.1518  136.8322  164.1204 O.2     1  UNL1       -0.2440
      5 N         140.0548  139.1299  163.6032 N.ar    1  UNL1       -0.2588
      6 C         139.6726  140.1946  162.6181 C.ar    1  UNL1        0.0717
      7 C         138.9578  141.4275  163.0859 C.ar    1  UNL1        0.0291
      8 C         138.5756  142.4922  162.1008 C.ar    1  UNL1        0.0591
      9 CL        137.8608  143.7252  162.5687 Cl      1  UNL1       -0.0822
     10 C         138.9083  142.3239  160.6479 C.ar    1  UNL1        0.0116
     11 C         139.6230  141.0910  160.1800 C.ar    1  UNL1        0.0051
     12 C         140.0052  140.0263  161.1651 C.ar    1  UNL1        0.0480
     13 C         139.7222  139.2982  165.0561 C.ar    1  UNL1        0.0683
     14 C         138.4275  138.7667  165.5956 C.ar    1  UNL1        0.0177
     15 C         138.0948  138.9350  167.0485 C.ar    1  UNL1        0.0015
     16 C         139.0570  139.6347  167.9620 C.ar    1  UNL1        0.0001
     17 C         140.3519  140.1663  167.4226 C.ar    1  UNL1        0.0015
     18 C         140.6845  139.9980  165.9696 C.ar    1  UNL1        0.0177
     19 C         139.9981  138.1651  158.2819 C.3     1  UNL1        0.1136
     20 N         141.0526  138.6251  159.2443 N.pl3   1  UNL1       -0.2896
     21 C         142.4399  138.9168  158.7538 C.3     1  UNL1        0.1136
@<TRIPOS>BOND
     1    19    20    1
     2    20    21    1
     3    20     1    1
     4     1     2   ar
     5     2     3   ar
     6     3     4    2
     7     3     5   ar
     8     5    13    1
     9    13    14   ar
    10    14    15   ar
    11    15    16   ar
    12    16    17   ar
    13    17    18   ar
    14     5     6   ar
    15     6     7   ar
    16     7     8   ar
    17     8     9    1
    18     8    10   ar
    19    10    11   ar
    20    11    12   ar
    21    12     1   ar
    22    18    13   ar
    23    12     6   ar
