@<TRIPOS>MOLECULE
*****
 47 53 0 0 0
SMALL
GASTEIGER

@<TRIPOS>ATOM
      1 C         137.9216  144.0292  164.5968 C.3     1  UNL1        0.0320
      2 C         137.9096  139.9816  162.6305 C.3     1  UNL1        0.0700
      3 C         137.7227  141.2182  161.8024 C.3     1  UNL1        0.0193
      4 C         137.7267  142.5674  162.4578 C.3     1  UNL1        0.0286
      5 C         137.9176  142.6800  163.9414 C.3     1  UNL1        0.0932
      6 C         138.1045  141.4434  164.7695 C.3     1  UNL1        0.0286
      7 C         138.1006  140.0941  164.1140 C.3     1  UNL1        0.0193
      8 O         137.9227  141.9190  163.6272 O.3     1  UNL1       -0.3572
      9 C         137.9192  140.6990  163.0346 C.3     1  UNL1        0.1562
     10 N         137.9056  138.6324  161.9751 N.3     1  UNL1       -0.2926
     11 H         137.6813  137.9527  162.7018 H       1  UNL1        0.1236
     12 C         139.1374  138.1325  161.2801 C.3     1  UNL1        0.1152
     13 O         143.9585  138.0350  167.4036 O.2     1  UNL1       -0.2707
     14 C         143.7048  138.3282  165.9546 C.2     1  UNL1        0.2718
     15 C         144.8043  138.8820  165.0977 C.3     1  UNL1        0.2898
     16 O         144.5505  139.1752  163.6487 O.3     1  UNL1       -0.4628
     17 C         143.1973  138.9145  163.0566 C.ar    1  UNL1        0.1708
     18 C         142.9435  139.2077  161.6075 C.ar    1  UNL1        0.0411
     19 C         141.5903  138.9471  161.0154 C.ar    1  UNL1        0.0193
     20 C         140.4907  138.3932  161.8723 C.ar    1  UNL1        0.0765
     21 N         140.7444  138.1000  163.3213 N.ar    1  UNL1       -0.2304
     22 C         142.0978  138.3607  163.9134 C.ar    1  UNL1        0.1682
     23 N         142.3515  138.0675  165.3625 N.am    1  UNL1       -0.2639
     24 H         141.6298  137.7040  165.9248 H       1  UNL1        0.1565
     25 C         139.2209  144.7295  164.8638 C.3     1  UNL1        0.0327
     26 C         140.3477  144.6205  163.8798 C.ar    1  UNL1        0.0261
     27 C         140.2352  145.2755  162.5350 C.ar    1  UNL1        0.1566
     28 F         138.9957  146.0396  162.1743 F       1  UNL1       -0.2028
     29 C         141.3620  145.1665  161.5510 C.ar    1  UNL1        0.1281
     30 N         142.6014  144.4025  161.9116 N.ar    1  UNL1       -0.2400
     31 C         142.7140  143.7474  163.2563 C.ar    1  UNL1        0.0990
     32 C         143.9534  142.9834  163.6170 C.ar    1  UNL1        0.0254
     33 C         144.0660  142.3283  164.9617 C.ar    1  UNL1        0.0593
     34 C         142.9392  142.4374  165.9458 C.ar    1  UNL1        0.2248
     35 N         141.6998  143.2014  165.5851 N.ar    1  UNL1       -0.2104
     36 C         141.5871  143.8564  164.2404 C.ar    1  UNL1        0.1002
     37 O         143.0518  141.7823  167.2904 O.3     1  UNL1       -0.4638
     38 C         141.8161  141.4969  168.0915 C.3     1  UNL1        0.1724
     39 C         141.5787  142.2165  169.3860 C.3     1  UNL1        0.0729
     40 C         140.3430  141.9310  170.1871 C.3     1  UNL1        0.1165
     41 O         140.1056  142.6506  171.4816 O.3     1  UNL1       -0.3843
     42 C         139.3448  140.9261  169.6936 C.3     1  UNL1        0.0587
     43 C         139.5822  140.2064  168.3991 C.3     1  UNL1        0.1165
     44 O         138.5840  139.2015  167.9056 O.3     1  UNL1       -0.3843
     45 C         140.8179  140.4919  167.5980 C.3     1  UNL1        0.0729
     46 H         139.2681  142.3515  171.8689 H       1  UNL1        0.2103
     47 H         137.8503  139.1377  168.5369 H       1  UNL1        0.2103
@<TRIPOS>BOND
     1    13    14    2
     2    14    15    1
     3    15    16    1
     4    16    17    1
     5    17    18   ar
     6    18    19   ar
     7    19    20   ar
     8    20    12    1
     9    12    10    1
    10    10     2    1
    11     2     3    1
    12     3     4    1
    13     4     5    1
    14     5     1    1
    15     1    25    1
    16    25    26    1
    17    26    27   ar
    18    27    28    1
    19    27    29   ar
    20    29    30   ar
    21    30    31   ar
    22    31    32   ar
    23    32    33   ar
    24    33    34   ar
    25    34    37    1
    26    37    38    1
    27    38    39    1
    28    39    40    1
    29    40    41    1
    30    40    42    1
    31    42    43    1
    32    43    44    1
    33    43    45    1
    34    34    35   ar
    35    35    36   ar
    36     5     6    1
    37     6     7    1
    38     5     8    1
    39     8     9    1
    40    20    21   ar
    41    21    22   ar
    42    22    23    1
    43    23    14   am
    44    22    17   ar
    45     7     2    1
    46     9     2    1
    47    36    26   ar
    48    36    31   ar
    49    45    38    1
    50    10    11    1
    51    41    46    1
    52    44    47    1
    53    23    24    1
@<TRIPOS>MOLECULE
*****
 47 53 0 0 0
SMALL
GASTEIGER

@<TRIPOS>ATOM
      1 C         140.8058  137.4222  164.6614 C.3     1  UNL1        0.0320
      2 C         144.4081  139.7898  163.3700 C.3     1  UNL1        0.0700
      3 C         144.1677  139.5247  164.8267 C.3     1  UNL1        0.0193
      4 C         142.9669  138.7355  165.2572 C.3     1  UNL1        0.0286
      5 C         142.0065  138.2114  164.2310 C.3     1  UNL1        0.0932
      6 C         142.2470  138.4764  162.7743 C.3     1  UNL1        0.0286
      7 C         143.4478  139.2657  162.3438 C.3     1  UNL1        0.0193
      8 O         142.6505  138.6387  163.9469 O.3     1  UNL1       -0.3572
      9 C         143.7362  139.3523  163.5576 C.3     1  UNL1        0.1562
     10 N         145.6089  140.5789  162.9395 N.3     1  UNL1       -0.2926
     11 H         146.4243  140.1183  163.3436 H       1  UNL1        0.1236
     12 C         145.7153  142.0336  163.2898 C.3     1  UNL1        0.1152
     13 O         140.2811  145.4341  158.8564 O.2     1  UNL1       -0.2707
     14 C         140.8940  145.1931  160.2041 C.2     1  UNL1        0.2718
     15 C         140.3083  145.8445  161.4217 C.3     1  UNL1        0.2898
     16 O         140.9211  145.6034  162.7694 O.3     1  UNL1       -0.4628
     17 C         142.1196  144.7110  162.8995 C.ar    1  UNL1        0.1708
     18 C         142.7325  144.4700  164.2472 C.ar    1  UNL1        0.0411
     19 C         143.9310  143.5775  164.3773 C.ar    1  UNL1        0.0193
     20 C         144.5168  142.9261  163.1597 C.ar    1  UNL1        0.0765
     21 N         143.9040  143.1671  161.8120 N.ar    1  UNL1       -0.2304
     22 C         142.7054  144.0596  161.6819 C.ar    1  UNL1        0.1682
     23 N         142.0925  144.3006  160.3342 N.am    1  UNL1       -0.2639
     24 H         142.4770  143.8731  159.5350 H       1  UNL1        0.1565
     25 C         139.5409  138.1309  165.0458 C.3     1  UNL1        0.0327
     26 C         138.9809  139.2011  164.1564 C.ar    1  UNL1        0.0261
     27 C         138.2685  138.8274  162.8903 C.ar    1  UNL1        0.1566
     28 F         138.1162  137.3835  162.5136 F       1  UNL1       -0.2028
     29 C         137.7086  139.8976  162.0009 C.ar    1  UNL1        0.1281
     30 N         137.8609  141.3416  162.3776 N.ar    1  UNL1       -0.2400
     31 C         138.5732  141.7153  163.6436 C.ar    1  UNL1        0.0990
     32 C         138.7256  143.1592  164.0202 C.ar    1  UNL1        0.0254
     33 C         139.4379  143.5329  165.2864 C.ar    1  UNL1        0.0593
     34 C         139.9979  142.4627  166.1757 C.ar    1  UNL1        0.2248
     35 N         139.8456  141.0188  165.7991 N.ar    1  UNL1       -0.2104
     36 C         139.1332  140.6450  164.5330 C.ar    1  UNL1        0.1002
     37 O         140.7102  142.8364  167.4418 O.3     1  UNL1       -0.4638
     38 C         140.8364  141.8380  168.5541 C.3     1  UNL1        0.1724
     39 C         142.1906  141.4805  169.0909 C.3     1  UNL1        0.0729
     40 C         142.3168  140.4821  170.2033 C.3     1  UNL1        0.1165
     41 O         143.6710  140.1245  170.7401 O.3     1  UNL1       -0.3843
     42 C         141.0888  139.8412  170.7787 C.3     1  UNL1        0.0587
     43 C         139.7345  140.1987  170.2419 C.3     1  UNL1        0.1165
     44 O         138.5065  139.5579  170.8174 O.3     1  UNL1       -0.3843
     45 C         139.6083  141.1971  169.1296 C.3     1  UNL1        0.0729
     46 H         143.5750  139.4704  171.4499 H       1  UNL1        0.2103
     47 H         138.7629  138.9424  171.5219 H       1  UNL1        0.2103
@<TRIPOS>BOND
     1    13    14    2
     2    14    15    1
     3    15    16    1
     4    16    17    1
     5    17    18   ar
     6    18    19   ar
     7    19    20   ar
     8    20    12    1
     9    12    10    1
    10    10     2    1
    11     2     3    1
    12     3     4    1
    13     4     5    1
    14     5     1    1
    15     1    25    1
    16    25    26    1
    17    26    27   ar
    18    27    28    1
    19    27    29   ar
    20    29    30   ar
    21    30    31   ar
    22    31    32   ar
    23    32    33   ar
    24    33    34   ar
    25    34    37    1
    26    37    38    1
    27    38    39    1
    28    39    40    1
    29    40    41    1
    30    40    42    1
    31    42    43    1
    32    43    44    1
    33    43    45    1
    34    34    35   ar
    35    35    36   ar
    36     5     6    1
    37     6     7    1
    38     5     8    1
    39     8     9    1
    40    20    21   ar
    41    21    22   ar
    42    22    23    1
    43    23    14   am
    44    22    17   ar
    45     7     2    1
    46     9     2    1
    47    36    26   ar
    48    36    31   ar
    49    45    38    1
    50    10    11    1
    51    41    46    1
    52    44    47    1
    53    23    24    1
@<TRIPOS>MOLECULE
*****
 47 53 0 0 0
SMALL
GASTEIGER

@<TRIPOS>ATOM
      1 C         144.3701  141.1399  164.6626 C.3     1  UNL1        0.0320
      2 C         141.9682  144.7798  163.5525 C.3     1  UNL1        0.0700
      3 C         141.6311  144.0088  164.7942 C.3     1  UNL1        0.0193
      4 C         142.4317  142.7955  165.1643 C.3     1  UNL1        0.0286
      5 C         143.5695  142.3532  164.2926 C.3     1  UNL1        0.0932
      6 C         143.9067  143.1242  163.0508 C.3     1  UNL1        0.0286
      7 C         143.1060  144.3375  162.6808 C.3     1  UNL1        0.0193
      8 O         143.1595  143.0243  164.0488 O.3     1  UNL1       -0.3572
      9 C         142.4356  144.1214  163.7142 C.3     1  UNL1        0.1562
     10 N         141.1676  145.9930  163.1825 N.3     1  UNL1       -0.2926
     11 H         140.7955  146.3765  164.0513 H       1  UNL1        0.1236
     12 C         140.0121  145.8686  162.2341 C.3     1  UNL1        0.1152
     13 O         138.4734  139.5105  157.9964 O.2     1  UNL1       -0.2707
     14 C         138.2854  140.3133  159.2495 C.2     1  UNL1        0.2718
     15 C         137.3965  139.7996  160.3430 C.3     1  UNL1        0.2898
     16 O         137.2085  140.6024  161.5961 O.3     1  UNL1       -0.4628
     17 C         137.9094  141.9190  161.7556 C.ar    1  UNL1        0.1708
     18 C         137.7214  142.7218  163.0087 C.ar    1  UNL1        0.0411
     19 C         138.4223  144.0383  163.1682 C.ar    1  UNL1        0.0193
     20 C         139.3112  144.5521  162.0746 C.ar    1  UNL1        0.0765
     21 N         139.4992  143.7493  160.8215 N.ar    1  UNL1       -0.2304
     22 C         138.7983  142.4327  160.6621 C.ar    1  UNL1        0.1682
     23 N         138.9863  141.6299  159.4090 N.am    1  UNL1       -0.2639
     24 H         139.5697  141.9670  158.6913 H       1  UNL1        0.1565
     25 C         143.6799  139.9205  165.1979 C.3     1  UNL1        0.0327
     26 C         142.6568  139.2101  164.3620 C.ar    1  UNL1        0.0261
     27 C         143.0233  138.7025  162.9989 C.ar    1  UNL1        0.1566
     28 F         144.4129  138.9053  162.4717 F       1  UNL1       -0.2028
     29 C         142.0003  137.9921  162.1630 C.ar    1  UNL1        0.1281
     30 N         140.6107  137.7892  162.6903 N.ar    1  UNL1       -0.2400
     31 C         140.2442  138.2968  164.0533 C.ar    1  UNL1        0.0990
     32 C         138.8546  138.0939  164.5806 C.ar    1  UNL1        0.0254
     33 C         138.4881  138.6015  165.9437 C.ar    1  UNL1        0.0593
     34 C         139.5112  139.3119  166.7796 C.ar    1  UNL1        0.2248
     35 N         140.9007  139.5147  166.2523 N.ar    1  UNL1       -0.2104
     36 C         141.2673  139.0072  164.8893 C.ar    1  UNL1        0.1002
     37 O         139.1446  139.8194  168.1426 O.3     1  UNL1       -0.4638
     38 C         140.1822  140.4804  169.0009 C.3     1  UNL1        0.1724
     39 C         140.1251  141.9599  169.2412 C.3     1  UNL1        0.0729
     40 C         141.1627  142.6210  170.0994 C.3     1  UNL1        0.1165
     41 O         141.1056  144.1004  170.3398 O.3     1  UNL1       -0.3843
     42 C         142.2573  141.8025  170.7173 C.3     1  UNL1        0.0587
     43 C         142.3145  140.3229  170.4769 C.3     1  UNL1        0.1165
     44 O         143.4091  139.5045  171.0948 O.3     1  UNL1       -0.3843
     45 C         141.2769  139.6619  169.6187 C.3     1  UNL1        0.0729
     46 H         141.8438  144.3639  170.9111 H       1  UNL1        0.2103
     47 H         143.9902  140.0815  171.6146 H       1  UNL1        0.2103
@<TRIPOS>BOND
     1    13    14    2
     2    14    15    1
     3    15    16    1
     4    16    17    1
     5    17    18   ar
     6    18    19   ar
     7    19    20   ar
     8    20    12    1
     9    12    10    1
    10    10     2    1
    11     2     3    1
    12     3     4    1
    13     4     5    1
    14     5     1    1
    15     1    25    1
    16    25    26    1
    17    26    27   ar
    18    27    28    1
    19    27    29   ar
    20    29    30   ar
    21    30    31   ar
    22    31    32   ar
    23    32    33   ar
    24    33    34   ar
    25    34    37    1
    26    37    38    1
    27    38    39    1
    28    39    40    1
    29    40    41    1
    30    40    42    1
    31    42    43    1
    32    43    44    1
    33    43    45    1
    34    34    35   ar
    35    35    36   ar
    36     5     6    1
    37     6     7    1
    38     5     8    1
    39     8     9    1
    40    20    21   ar
    41    21    22   ar
    42    22    23    1
    43    23    14   am
    44    22    17   ar
    45     7     2    1
    46     9     2    1
    47    36    26   ar
    48    36    31   ar
    49    45    38    1
    50    10    11    1
    51    41    46    1
    52    44    47    1
    53    23    24    1
@<TRIPOS>MOLECULE
*****
 47 53 0 0 0
SMALL
GASTEIGER

@<TRIPOS>ATOM
      1 C         138.7975  138.7857  164.8252 C.3     1  UNL1        0.0320
      2 C         137.9349  142.8538  163.1057 C.3     1  UNL1        0.0700
      3 C         137.9728  141.6527  162.2079 C.3     1  UNL1        0.0193
      4 C         138.2604  140.2967  162.7810 C.3     1  UNL1        0.0286
      5 C         138.5100  140.1417  164.2520 C.3     1  UNL1        0.0932
      6 C         138.4720  141.3428  165.1498 C.3     1  UNL1        0.0286
      7 C         138.1844  142.6988  164.5766 C.3     1  UNL1        0.0193
      8 O         138.3565  140.9050  163.9840 O.3     1  UNL1       -0.3572
      9 C         138.0965  142.1311  163.4658 C.3     1  UNL1        0.1562
     10 N         137.6474  144.2098  162.5326 N.3     1  UNL1       -0.2926
     11 H         137.3382  144.0638  161.5716 H       1  UNL1        0.1236
     12 C         138.7280  145.2492  162.4866 C.3     1  UNL1        0.1152
     13 O         144.1700  141.4670  158.3842 O.2     1  UNL1       -0.2707
     14 C         143.7854  142.3155  159.5598 C.2     1  UNL1        0.2718
     15 C         144.8303  142.7518  160.5436 C.3     1  UNL1        0.2898
     16 O         144.4457  143.6003  161.7193 O.3     1  UNL1       -0.4628
     17 C         143.0163  144.0126  161.9111 C.ar    1  UNL1        0.1708
     18 C         142.6317  144.8611  163.0867 C.ar    1  UNL1        0.0411
     19 C         141.2023  145.2733  163.2786 C.ar    1  UNL1        0.0193
     20 C         140.1574  144.8370  162.2948 C.ar    1  UNL1        0.0765
     21 N         140.5419  143.9884  161.1191 N.ar    1  UNL1       -0.2304
     22 C         141.9714  143.5762  160.9273 C.ar    1  UNL1        0.1682
     23 N         142.3560  142.7277  159.7517 N.am    1  UNL1       -0.2639
     24 H         141.6702  142.4413  159.1060 H       1  UNL1        0.1565
     25 C         140.1752  138.4568  165.3188 C.3     1  UNL1        0.0327
     26 C         141.3648  138.6954  164.4367 C.ar    1  UNL1        0.0261
     27 C         141.6455  137.7704  163.2897 C.ar    1  UNL1        0.1566
     28 F         140.7367  136.6068  163.0248 F       1  UNL1       -0.2028
     29 C         142.8351  138.0090  162.4077 C.ar    1  UNL1        0.1281
     30 N         143.7439  139.1725  162.6726 N.ar    1  UNL1       -0.2400
     31 C         143.4631  140.0975  163.8195 C.ar    1  UNL1        0.0990
     32 C         144.3720  141.2611  164.0844 C.ar    1  UNL1        0.0254
     33 C         144.0912  142.1861  165.2315 C.ar    1  UNL1        0.0593
     34 C         142.9016  141.9475  166.1135 C.ar    1  UNL1        0.2248
     35 N         141.9928  140.7840  165.8486 N.ar    1  UNL1       -0.2104
     36 C         142.2736  139.8590  164.7017 C.ar    1  UNL1        0.1002
     37 O         142.6209  142.8725  167.2605 O.3     1  UNL1       -0.4638
     38 C         142.2475  142.3130  168.6012 C.3     1  UNL1        0.1724
     39 C         143.0636  141.2100  169.2072 C.3     1  UNL1        0.0729
     40 C         142.6902  140.6505  170.5480 C.3     1  UNL1        0.1165
     41 O         143.5062  139.5475  171.1540 O.3     1  UNL1       -0.3843
     42 C         141.5007  141.1940  171.2826 C.3     1  UNL1        0.0587
     43 C         140.6846  142.2970  170.6765 C.3     1  UNL1        0.1165
     44 O         139.4951  142.8405  171.4111 O.3     1  UNL1       -0.3843
     45 C         141.0580  142.8566  169.3358 C.3     1  UNL1        0.0729
     46 H         143.1320  139.3041  172.0152 H       1  UNL1        0.2103
     47 H         139.3945  142.3725  172.2548 H       1  UNL1        0.2103
@<TRIPOS>BOND
     1    13    14    2
     2    14    15    1
     3    15    16    1
     4    16    17    1
     5    17    18   ar
     6    18    19   ar
     7    19    20   ar
     8    20    12    1
     9    12    10    1
    10    10     2    1
    11     2     3    1
    12     3     4    1
    13     4     5    1
    14     5     1    1
    15     1    25    1
    16    25    26    1
    17    26    27   ar
    18    27    28    1
    19    27    29   ar
    20    29    30   ar
    21    30    31   ar
    22    31    32   ar
    23    32    33   ar
    24    33    34   ar
    25    34    37    1
    26    37    38    1
    27    38    39    1
    28    39    40    1
    29    40    41    1
    30    40    42    1
    31    42    43    1
    32    43    44    1
    33    43    45    1
    34    34    35   ar
    35    35    36   ar
    36     5     6    1
    37     6     7    1
    38     5     8    1
    39     8     9    1
    40    20    21   ar
    41    21    22   ar
    42    22    23    1
    43    23    14   am
    44    22    17   ar
    45     7     2    1
    46     9     2    1
    47    36    26   ar
    48    36    31   ar
    49    45    38    1
    50    10    11    1
    51    41    46    1
    52    44    47    1
    53    23    24    1
@<TRIPOS>MOLECULE
*****
 47 53 0 0 0
SMALL
GASTEIGER

@<TRIPOS>ATOM
      1 C         137.8452  143.8235  164.8315 C.3     1  UNL1        0.0320
      2 C         138.0980  139.7124  163.0190 C.3     1  UNL1        0.0700
      3 C         138.5404  139.9364  164.4347 C.3     1  UNL1        0.0193
      4 C         138.4561  141.3068  165.0389 C.3     1  UNL1        0.0286
      5 C         137.9294  142.4532  164.2274 C.3     1  UNL1        0.0932
      6 C         137.4870  142.2291  162.8117 C.3     1  UNL1        0.0286
      7 C         137.5713  140.8587  162.2075 C.3     1  UNL1        0.0193
      8 O         137.9568  141.7203  163.8531 O.3     1  UNL1       -0.3572
      9 C         138.0330  140.4812  163.3068 C.3     1  UNL1        0.1562
     10 N         138.1822  138.3421  162.4149 N.3     1  UNL1       -0.2926
     11 H         138.4751  137.7095  163.1595 H       1  UNL1        0.1236
     12 C         139.0932  138.0907  161.2499 C.3     1  UNL1        0.1152
     13 O         143.2803  144.0262  158.4235 O.2     1  UNL1       -0.2707
     14 C         143.1870  142.7842  159.2595 C.2     1  UNL1        0.2718
     15 C         144.3961  142.2787  159.9892 C.3     1  UNL1        0.2898
     16 O         144.3028  141.0368  160.8251 O.3     1  UNL1       -0.4628
     17 C         143.0004  140.3003  160.9313 C.ar    1  UNL1        0.1708
     18 C         142.9072  139.0583  161.7673 C.ar    1  UNL1        0.0411
     19 C         141.6048  138.3218  161.8735 C.ar    1  UNL1        0.0193
     20 C         140.3956  138.8272  161.1437 C.ar    1  UNL1        0.0765
     21 N         140.4889  140.0692  160.3078 N.ar    1  UNL1       -0.2304
     22 C         141.7913  140.8057  160.2016 C.ar    1  UNL1        0.1682
     23 N         141.8846  142.0477  159.3657 N.am    1  UNL1       -0.2639
     24 H         141.0910  142.3795  158.8867 H       1  UNL1        0.1565
     25 C         139.0851  144.6541  164.9826 C.3     1  UNL1        0.0327
     26 C         140.2036  144.5190  163.9924 C.ar    1  UNL1        0.0261
     27 C         140.0839  145.1470  162.6354 C.ar    1  UNL1        0.1566
     28 F         138.8456  145.9100  162.2687 F       1  UNL1       -0.2028
     29 C         141.2024  145.0119  161.6451 C.ar    1  UNL1        0.1281
     30 N         142.4406  144.2488  162.0118 N.ar    1  UNL1       -0.2400
     31 C         142.5604  143.6209  163.3687 C.ar    1  UNL1        0.0990
     32 C         143.7987  142.8578  163.7354 C.ar    1  UNL1        0.0254
     33 C         143.9184  142.2299  165.0924 C.ar    1  UNL1        0.0593
     34 C         142.7999  142.3650  166.0827 C.ar    1  UNL1        0.2248
     35 N         141.5616  143.1280  165.7160 N.ar    1  UNL1       -0.2104
     36 C         141.4418  143.7560  164.3591 C.ar    1  UNL1        0.1002
     37 O         142.9196  141.7370  167.4396 O.3     1  UNL1       -0.4638
     38 C         141.6870  141.4515  168.2453 C.3     1  UNL1        0.1724
     39 C         141.4462  142.1830  169.5324 C.3     1  UNL1        0.0729
     40 C         140.2136  141.8975  170.3382 C.3     1  UNL1        0.1165
     41 O         139.9728  142.6290  171.6253 O.3     1  UNL1       -0.3843
     42 C         139.2218  140.8804  169.8567 C.3     1  UNL1        0.0587
     43 C         139.4626  140.1487  168.5695 C.3     1  UNL1        0.1165
     44 O         138.4709  139.1316  168.0881 O.3     1  UNL1       -0.3843
     45 C         140.6952  140.4343  167.7638 C.3     1  UNL1        0.0729
     46 H         139.1379  142.3282  172.0169 H       1  UNL1        0.2103
     47 H         137.7385  139.0694  168.7210 H       1  UNL1        0.2103
@<TRIPOS>BOND
     1    13    14    2
     2    14    15    1
     3    15    16    1
     4    16    17    1
     5    17    18   ar
     6    18    19   ar
     7    19    20   ar
     8    20    12    1
     9    12    10    1
    10    10     2    1
    11     2     3    1
    12     3     4    1
    13     4     5    1
    14     5     1    1
    15     1    25    1
    16    25    26    1
    17    26    27   ar
    18    27    28    1
    19    27    29   ar
    20    29    30   ar
    21    30    31   ar
    22    31    32   ar
    23    32    33   ar
    24    33    34   ar
    25    34    37    1
    26    37    38    1
    27    38    39    1
    28    39    40    1
    29    40    41    1
    30    40    42    1
    31    42    43    1
    32    43    44    1
    33    43    45    1
    34    34    35   ar
    35    35    36   ar
    36     5     6    1
    37     6     7    1
    38     5     8    1
    39     8     9    1
    40    20    21   ar
    41    21    22   ar
    42    22    23    1
    43    23    14   am
    44    22    17   ar
    45     7     2    1
    46     9     2    1
    47    36    26   ar
    48    36    31   ar
    49    45    38    1
    50    10    11    1
    51    41    46    1
    52    44    47    1
    53    23    24    1
@<TRIPOS>MOLECULE
*****
 47 53 0 0 0
SMALL
GASTEIGER

@<TRIPOS>ATOM
      1 C         141.3624  137.9036  164.8259 C.3     1  UNL1        0.0320
      2 C         138.3536  141.2419  164.5961 C.3     1  UNL1        0.0700
      3 C         139.0569  140.9538  165.8893 C.3     1  UNL1        0.0193
      4 C         140.0598  139.8411  165.9659 C.3     1  UNL1        0.0286
      5 C         140.3595  139.0163  164.7493 C.3     1  UNL1        0.0932
      6 C         139.6561  139.3044  163.4561 C.3     1  UNL1        0.0286
      7 C         138.6532  140.4172  163.3795 C.3     1  UNL1        0.0193
      8 O         139.8021  139.6156  164.6586 O.3     1  UNL1       -0.3572
      9 C         138.8953  140.6217  164.5893 C.3     1  UNL1        0.1562
     10 N         137.3507  142.3546  164.5194 N.3     1  UNL1       -0.2926
     11 H         136.6915  142.1066  163.7816 H       1  UNL1        0.1236
     12 C         137.8056  143.7565  164.2404 C.3     1  UNL1        0.1152
     13 O         140.2770  143.8759  156.8493 O.2     1  UNL1       -0.2707
     14 C         140.5410  144.0861  158.3108 C.2     1  UNL1        0.2718
     15 C         141.8926  144.5463  158.7702 C.3     1  UNL1        0.2898
     16 O         142.1566  144.7566  160.2318 O.3     1  UNL1       -0.4628
     17 C         141.0689  144.5066  161.2339 C.ar    1  UNL1        0.1708
     18 C         141.3328  144.7168  162.6955 C.ar    1  UNL1        0.0411
     19 C         140.2451  144.4668  163.6976 C.ar    1  UNL1        0.0193
     20 C         138.8934  144.0065  163.2382 C.ar    1  UNL1        0.0765
     21 N         138.6294  143.7963  161.7767 N.ar    1  UNL1       -0.2304
     22 C         139.7172  144.0463  160.7745 C.ar    1  UNL1        0.1682
     23 N         139.4532  143.8361  159.3130 N.am    1  UNL1       -0.2639
     24 H         138.5661  143.5340  159.0115 H       1  UNL1        0.1565
     25 C         142.8287  138.2170  164.8666 C.3     1  UNL1        0.0327
     26 C         143.3932  139.2817  163.9735 C.ar    1  UNL1        0.0261
     27 C         143.7338  138.9621  162.5480 C.ar    1  UNL1        0.1566
     28 F         143.5099  137.5777  162.0157 F       1  UNL1       -0.2028
     29 C         144.2982  140.0268  161.6549 C.ar    1  UNL1        0.1281
     30 N         144.5221  141.4112  162.1872 N.ar    1  UNL1       -0.2400
     31 C         144.1816  141.7309  163.6126 C.ar    1  UNL1        0.0990
     32 C         144.4055  143.1152  164.1449 C.ar    1  UNL1        0.0254
     33 C         144.0649  143.4349  165.5704 C.ar    1  UNL1        0.0593
     34 C         143.5004  142.3701  166.4635 C.ar    1  UNL1        0.2248
     35 N         143.2765  140.9857  165.9312 N.ar    1  UNL1       -0.2104
     36 C         143.6171  140.6661  164.5058 C.ar    1  UNL1        0.1002
     37 O         143.1599  142.6898  167.8889 O.3     1  UNL1       -0.4638
     38 C         142.3731  141.7113  168.7096 C.3     1  UNL1        0.1724
     39 C         140.9607  142.0275  169.1032 C.3     1  UNL1        0.0729
     40 C         140.1739  141.0490  169.9239 C.3     1  UNL1        0.1165
     41 O         138.7614  141.3652  170.3176 O.3     1  UNL1       -0.3843
     42 C         140.7995  139.7544  170.3510 C.3     1  UNL1        0.0587
     43 C         142.2120  139.4381  169.9574 C.3     1  UNL1        0.1165
     44 O         142.8377  138.1435  170.3844 O.3     1  UNL1       -0.3843
     45 C         142.9988  140.4166  169.1367 C.3     1  UNL1        0.0729
     46 H         138.4003  140.6332  170.8417 H       1  UNL1        0.2103
     47 H         142.1984  137.6313  170.9039 H       1  UNL1        0.2103
@<TRIPOS>BOND
     1    13    14    2
     2    14    15    1
     3    15    16    1
     4    16    17    1
     5    17    18   ar
     6    18    19   ar
     7    19    20   ar
     8    20    12    1
     9    12    10    1
    10    10     2    1
    11     2     3    1
    12     3     4    1
    13     4     5    1
    14     5     1    1
    15     1    25    1
    16    25    26    1
    17    26    27   ar
    18    27    28    1
    19    27    29   ar
    20    29    30   ar
    21    30    31   ar
    22    31    32   ar
    23    32    33   ar
    24    33    34   ar
    25    34    37    1
    26    37    38    1
    27    38    39    1
    28    39    40    1
    29    40    41    1
    30    40    42    1
    31    42    43    1
    32    43    44    1
    33    43    45    1
    34    34    35   ar
    35    35    36   ar
    36     5     6    1
    37     6     7    1
    38     5     8    1
    39     8     9    1
    40    20    21   ar
    41    21    22   ar
    42    22    23    1
    43    23    14   am
    44    22    17   ar
    45     7     2    1
    46     9     2    1
    47    36    26   ar
    48    36    31   ar
    49    45    38    1
    50    10    11    1
    51    41    46    1
    52    44    47    1
    53    23    24    1
@<TRIPOS>MOLECULE
*****
 47 53 0 0 0
SMALL
GASTEIGER

@<TRIPOS>ATOM
      1 C         144.3706  139.1651  164.2186 C.3     1  UNL1        0.0320
      2 C         140.5032  138.0373  162.2133 C.3     1  UNL1        0.0700
      3 C         141.7406  138.2471  161.3919 C.3     1  UNL1        0.0193
      4 C         143.0297  138.6231  162.0603 C.3     1  UNL1        0.0286
      5 C         143.0815  138.7892  163.5502 C.3     1  UNL1        0.0932
      6 C         141.8441  138.5793  164.3717 C.3     1  UNL1        0.0286
      7 C         140.5549  138.2034  163.7032 C.3     1  UNL1        0.0193
      8 O         142.3521  138.5823  163.2289 O.3     1  UNL1       -0.3572
      9 C         141.1864  138.2424  162.6245 C.3     1  UNL1        0.1562
     10 N         139.2140  137.6614  161.5450 N.3     1  UNL1       -0.2926
     11 H         139.4062  136.8355  160.9779 H       1  UNL1        0.1236
     12 C         138.5164  138.6458  160.6537 C.3     1  UNL1        0.1152
     13 O         141.8924  145.5224  159.2168 O.2     1  UNL1       -0.2707
     14 C         140.8851  144.7010  159.9656 C.2     1  UNL1        0.2718
     15 C         139.9959  145.3503  160.9841 C.3     1  UNL1        0.2898
     16 O         138.9886  144.5289  161.7329 O.3     1  UNL1       -0.4628
     17 C         138.8705  143.0582  161.4631 C.ar    1  UNL1        0.1708
     18 C         137.8632  142.2368  162.2119 C.ar    1  UNL1        0.0411
     19 C         137.7452  140.7660  161.9421 C.ar    1  UNL1        0.0193
     20 C         138.6344  140.1165  160.9235 C.ar    1  UNL1        0.0765
     21 N         139.6417  140.9379  160.1747 N.ar    1  UNL1       -0.2304
     22 C         139.7598  142.4088  160.4446 C.ar    1  UNL1        0.1682
     23 N         140.7670  143.2302  159.6958 N.am    1  UNL1       -0.2639
     24 H         141.3507  142.8039  159.0272 H       1  UNL1        0.1565
     25 C         144.4832  140.4693  164.9509 C.3     1  UNL1        0.0327
     26 C         144.0292  141.7395  164.2948 C.ar    1  UNL1        0.0261
     27 C         144.8879  142.3944  163.2537 C.ar    1  UNL1        0.1566
     28 F         146.2006  141.7791  162.8688 F       1  UNL1       -0.2028
     29 C         144.4338  143.6646  162.5977 C.ar    1  UNL1        0.1281
     30 N         143.1211  144.2799  162.9826 N.ar    1  UNL1       -0.2400
     31 C         142.2625  143.6250  164.0237 C.ar    1  UNL1        0.0990
     32 C         140.9498  144.2403  164.4086 C.ar    1  UNL1        0.0254
     33 C         140.0911  143.5854  165.4497 C.ar    1  UNL1        0.0593
     34 C         140.5451  142.3153  166.1058 C.ar    1  UNL1        0.2248
     35 N         141.8578  141.6999  165.7208 N.ar    1  UNL1       -0.2104
     36 C         142.7165  142.3548  164.6798 C.ar    1  UNL1        0.1002
     37 O         139.6865  141.6604  167.1469 O.3     1  UNL1       -0.4638
     38 C         140.2111  141.4674  168.5388 C.3     1  UNL1        0.1724
     39 C         139.6978  140.3396  169.3841 C.3     1  UNL1        0.0729
     40 C         140.2224  140.1466  170.7761 C.3     1  UNL1        0.1165
     41 O         139.7091  139.0188  171.6214 O.3     1  UNL1       -0.3843
     42 C         141.2603  141.0814  171.3227 C.3     1  UNL1        0.0587
     43 C         141.7736  142.2093  170.4774 C.3     1  UNL1        0.1165
     44 O         142.8115  143.1441  171.0241 O.3     1  UNL1       -0.3843
     45 C         141.2490  142.4023  169.0855 C.3     1  UNL1        0.0729
     46 H         140.1485  139.0369  172.4860 H       1  UNL1        0.2103
     47 H         143.0392  142.8807  171.9294 H       1  UNL1        0.2103
@<TRIPOS>BOND
     1    13    14    2
     2    14    15    1
     3    15    16    1
     4    16    17    1
     5    17    18   ar
     6    18    19   ar
     7    19    20   ar
     8    20    12    1
     9    12    10    1
    10    10     2    1
    11     2     3    1
    12     3     4    1
    13     4     5    1
    14     5     1    1
    15     1    25    1
    16    25    26    1
    17    26    27   ar
    18    27    28    1
    19    27    29   ar
    20    29    30   ar
    21    30    31   ar
    22    31    32   ar
    23    32    33   ar
    24    33    34   ar
    25    34    37    1
    26    37    38    1
    27    38    39    1
    28    39    40    1
    29    40    41    1
    30    40    42    1
    31    42    43    1
    32    43    44    1
    33    43    45    1
    34    34    35   ar
    35    35    36   ar
    36     5     6    1
    37     6     7    1
    38     5     8    1
    39     8     9    1
    40    20    21   ar
    41    21    22   ar
    42    22    23    1
    43    23    14   am
    44    22    17   ar
    45     7     2    1
    46     9     2    1
    47    36    26   ar
    48    36    31   ar
    49    45    38    1
    50    10    11    1
    51    41    46    1
    52    44    47    1
    53    23    24    1
@<TRIPOS>MOLECULE
*****
 47 53 0 0 0
SMALL
GASTEIGER

@<TRIPOS>ATOM
      1 C         138.3975  138.2482  162.9444 C.3     1  UNL1        0.0320
      2 C         137.8048  142.7061  162.7848 C.3     1  UNL1        0.0700
      3 C         137.8327  142.0001  164.1080 C.3     1  UNL1        0.0193
      4 C         138.0303  140.5142  164.1612 C.3     1  UNL1        0.0286
      5 C         138.2000  139.7342  162.8912 C.3     1  UNL1        0.0932
      6 C         138.1721  140.4402  161.5680 C.3     1  UNL1        0.0286
      7 C         137.9745  141.9262  161.5149 C.3     1  UNL1        0.0193
      8 O         138.0945  140.5469  162.8117 O.3     1  UNL1       -0.3572
      9 C         137.9158  141.8905  162.7636 C.3     1  UNL1        0.1562
     10 N         137.6073  144.1921  162.7317 N.3     1  UNL1       -0.2926
     11 H         137.1699  144.3990  161.8337 H       1  UNL1        0.1236
     12 C         138.7862  145.1106  162.8610 C.3     1  UNL1        0.1152
     13 O         145.0763  142.4976  159.0720 O.2     1  UNL1       -0.2707
     14 C         144.3698  142.8058  160.3588 C.2     1  UNL1        0.2718
     15 C         145.0535  142.5512  161.6694 C.3     1  UNL1        0.2898
     16 O         144.3469  142.8593  162.9562 O.3     1  UNL1       -0.4628
     17 C         142.9568  143.4221  162.9324 C.ar    1  UNL1        0.1708
     18 C         142.2503  143.7303  164.2193 C.ar    1  UNL1        0.0411
     19 C         140.8601  144.2931  164.1955 C.ar    1  UNL1        0.0193
     20 C         140.1763  144.5478  162.8848 C.ar    1  UNL1        0.0765
     21 N         140.8828  144.2396  161.5980 N.ar    1  UNL1       -0.2304
     22 C         142.2731  143.6768  161.6218 C.ar    1  UNL1        0.1682
     23 N         142.9796  143.3686  160.3350 N.am    1  UNL1       -0.2639
     24 H         142.5309  143.5357  159.4748 H       1  UNL1        0.1565
     25 C         139.7074  137.6818  163.4063 C.3     1  UNL1        0.0327
     26 C         140.9878  138.1415  162.7745 C.ar    1  UNL1        0.0261
     27 C         141.1045  138.2110  161.2806 C.ar    1  UNL1        0.1566
     28 F         139.9406  137.8208  160.4185 F       1  UNL1       -0.2028
     29 C         142.3849  138.6708  160.6488 C.ar    1  UNL1        0.1281
     30 N         143.5487  139.0610  161.5109 N.ar    1  UNL1       -0.2400
     31 C         143.4321  138.9916  163.0047 C.ar    1  UNL1        0.0990
     32 C         144.5960  139.3818  163.8668 C.ar    1  UNL1        0.0254
     33 C         144.4794  139.3124  165.3607 C.ar    1  UNL1        0.0593
     34 C         143.1990  138.8526  165.9924 C.ar    1  UNL1        0.2248
     35 N         142.0351  138.4624  165.1304 N.ar    1  UNL1       -0.2104
     36 C         142.1517  138.5318  163.6365 C.ar    1  UNL1        0.1002
     37 O         143.0824  138.7832  167.4862 O.3     1  UNL1       -0.4638
     38 C         142.2200  139.7685  168.2179 C.3     1  UNL1        0.1724
     39 C         141.6796  140.9699  167.5005 C.3     1  UNL1        0.0729
     40 C         140.8172  141.9553  168.2322 C.3     1  UNL1        0.1165
     41 O         140.2768  143.1566  167.5148 O.3     1  UNL1       -0.3843
     42 C         140.4952  141.7393  169.6812 C.3     1  UNL1        0.0587
     43 C         141.0357  140.5379  170.3986 C.3     1  UNL1        0.1165
     44 O         140.7137  140.3219  171.8476 O.3     1  UNL1       -0.3843
     45 C         141.8981  139.5525  169.6670 C.3     1  UNL1        0.0729
     46 H         139.7434  143.6864  168.1278 H       1  UNL1        0.2103
     47 H         140.1505  141.0451  172.1649 H       1  UNL1        0.2103
@<TRIPOS>BOND
     1    13    14    2
     2    14    15    1
     3    15    16    1
     4    16    17    1
     5    17    18   ar
     6    18    19   ar
     7    19    20   ar
     8    20    12    1
     9    12    10    1
    10    10     2    1
    11     2     3    1
    12     3     4    1
    13     4     5    1
    14     5     1    1
    15     1    25    1
    16    25    26    1
    17    26    27   ar
    18    27    28    1
    19    27    29   ar
    20    29    30   ar
    21    30    31   ar
    22    31    32   ar
    23    32    33   ar
    24    33    34   ar
    25    34    37    1
    26    37    38    1
    27    38    39    1
    28    39    40    1
    29    40    41    1
    30    40    42    1
    31    42    43    1
    32    43    44    1
    33    43    45    1
    34    34    35   ar
    35    35    36   ar
    36     5     6    1
    37     6     7    1
    38     5     8    1
    39     8     9    1
    40    20    21   ar
    41    21    22   ar
    42    22    23    1
    43    23    14   am
    44    22    17   ar
    45     7     2    1
    46     9     2    1
    47    36    26   ar
    48    36    31   ar
    49    45    38    1
    50    10    11    1
    51    41    46    1
    52    44    47    1
    53    23    24    1
@<TRIPOS>MOLECULE
*****
 47 53 0 0 0
SMALL
GASTEIGER

@<TRIPOS>ATOM
      1 C         137.7185  143.6977  163.6015 C.3     1  UNL1        0.0320
      2 C         142.0205  145.0063  163.4277 C.3     1  UNL1        0.0700
      3 C         141.0882  145.3425  162.3017 C.3     1  UNL1        0.0193
      4 C         139.6542  144.9063  162.3596 C.3     1  UNL1        0.0286
      5 C         139.1525  144.1338  163.5436 C.3     1  UNL1        0.0932
      6 C         140.0848  143.7976  164.6695 C.3     1  UNL1        0.0286
      7 C         141.5188  144.2338  164.6116 C.3     1  UNL1        0.0193
      8 O         139.9465  144.3513  163.5567 O.3     1  UNL1       -0.3572
      9 C         141.2432  144.7457  163.5043 C.3     1  UNL1        0.1562
     10 N         143.4545  145.4424  163.3697 N.3     1  UNL1       -0.2926
     11 H         143.4613  146.3789  162.9656 H       1  UNL1        0.1236
     12 C         144.4546  144.6314  162.6003 C.3     1  UNL1        0.1152
     13 O         143.1086  137.8405  159.0197 O.2     1  UNL1       -0.2707
     14 C         143.4957  138.6058  160.2502 C.2     1  UNL1        0.2718
     15 C         143.8213  137.8730  161.5179 C.3     1  UNL1        0.2898
     16 O         144.2084  138.6384  162.7484 O.3     1  UNL1       -0.4628
     17 C         144.2700  140.1366  162.7114 C.ar    1  UNL1        0.1708
     18 C         144.6571  140.9020  163.9420 C.ar    1  UNL1        0.0411
     19 C         144.7186  142.4002  163.9050 C.ar    1  UNL1        0.0193
     20 C         144.3931  143.1332  162.6373 C.ar    1  UNL1        0.0765
     21 N         144.0060  142.3678  161.4067 N.ar    1  UNL1       -0.2304
     22 C         143.9444  140.8695  161.4438 C.ar    1  UNL1        0.1682
     23 N         143.5573  140.1041  160.2132 N.am    1  UNL1       -0.2639
     24 H         143.3436  140.5851  159.3812 H       1  UNL1        0.1565
     25 C         137.3596  142.2642  163.3438 C.3     1  UNL1        0.0327
     26 C         138.3826  141.3252  162.7768 C.ar    1  UNL1        0.0261
     27 C         138.6070  141.2664  161.2948 C.ar    1  UNL1        0.1566
     28 F         137.8083  142.1468  160.3799 F       1  UNL1       -0.2028
     29 C         139.6300  140.3274  160.7278 C.ar    1  UNL1        0.1281
     30 N         140.4287  139.4470  161.6427 N.ar    1  UNL1       -0.2400
     31 C         140.2044  139.5057  163.1246 C.ar    1  UNL1        0.0990
     32 C         141.0031  138.6254  164.0395 C.ar    1  UNL1        0.0254
     33 C         140.7787  138.6842  165.5216 C.ar    1  UNL1        0.0593
     34 C         139.7557  139.6232  166.0886 C.ar    1  UNL1        0.2248
     35 N         138.9570  140.5035  165.1736 N.ar    1  UNL1       -0.2104
     36 C         139.1813  140.4448  163.6917 C.ar    1  UNL1        0.1002
     37 O         139.5314  139.6819  167.5705 O.3     1  UNL1       -0.4638
     38 C         140.3465  140.6149  168.4161 C.3     1  UNL1        0.1724
     39 C         139.8959  140.9549  169.8058 C.3     1  UNL1        0.0729
     40 C         140.7110  141.8880  170.6514 C.3     1  UNL1        0.1165
     41 O         140.2604  142.2279  172.0411 O.3     1  UNL1       -0.3843
     42 C         141.9767  142.4810  170.1072 C.3     1  UNL1        0.0587
     43 C         142.4274  142.1411  168.7174 C.3     1  UNL1        0.1165
     44 O         143.6931  142.7342  168.1733 O.3     1  UNL1       -0.3843
     45 C         141.6123  141.2080  167.8719 C.3     1  UNL1        0.0729
     46 H         140.8957  142.8384  172.4467 H       1  UNL1        0.2103
     47 H         144.0942  143.3101  168.8429 H       1  UNL1        0.2103
@<TRIPOS>BOND
     1    13    14    2
     2    14    15    1
     3    15    16    1
     4    16    17    1
     5    17    18   ar
     6    18    19   ar
     7    19    20   ar
     8    20    12    1
     9    12    10    1
    10    10     2    1
    11     2     3    1
    12     3     4    1
    13     4     5    1
    14     5     1    1
    15     1    25    1
    16    25    26    1
    17    26    27   ar
    18    27    28    1
    19    27    29   ar
    20    29    30   ar
    21    30    31   ar
    22    31    32   ar
    23    32    33   ar
    24    33    34   ar
    25    34    37    1
    26    37    38    1
    27    38    39    1
    28    39    40    1
    29    40    41    1
    30    40    42    1
    31    42    43    1
    32    43    44    1
    33    43    45    1
    34    34    35   ar
    35    35    36   ar
    36     5     6    1
    37     6     7    1
    38     5     8    1
    39     8     9    1
    40    20    21   ar
    41    21    22   ar
    42    22    23    1
    43    23    14   am
    44    22    17   ar
    45     7     2    1
    46     9     2    1
    47    36    26   ar
    48    36    31   ar
    49    45    38    1
    50    10    11    1
    51    41    46    1
    52    44    47    1
    53    23    24    1
