@<TRIPOS>MOLECULE
*****
 33 37 0 0 0
SMALL
GASTEIGER

@<TRIPOS>ATOM
      1 C         139.4868  139.4350  160.1919 C.3     1  UNL1        0.2052
      2 C         139.7760  138.2795  159.2802 C.3     1  UNL1        0.1391
      3 N         141.1417  138.8366  159.0072 N.am    1  UNL1       -0.2647
      4 C         142.3119  138.4136  158.1696 C.2     1  UNL1        0.3047
      5 O         143.5561  139.2509  158.1419 O.2     1  UNL1       -0.2647
      6 C         140.8524  139.9922  159.9189 C.3     1  UNL1        0.1391
      7 C         142.2379  137.1532  157.3596 C.ar    1  UNL1        0.3043
      8 N         141.2147  136.8395  156.3087 N.ar    1  UNL1       -0.1021
      9 N         141.5184  135.4777  155.7580 N.ar    1  UNL1       -0.1068
     10 C         142.7294  134.9499  156.4686 C.ar    1  UNL1        0.2501
     11 O         143.1741  135.9855  157.4585 O.2     1  UNL1       -0.4122
     12 C         143.3813  133.6200  156.2310 C.ar    1  UNL1        0.0551
     13 C         144.3597  133.0753  157.2290 C.ar    1  UNL1        0.0047
     14 C         145.0116  131.7454  156.9915 C.ar    1  UNL1        0.0002
     15 C         144.6851  130.9602  155.7559 C.ar    1  UNL1        0.0000
     16 C         143.7067  131.5048  154.7578 C.ar    1  UNL1        0.0002
     17 C         143.0548  132.8347  154.9953 C.ar    1  UNL1        0.0047
     18 O         138.3166  139.8580  161.0295 O.3     1  UNL1       -0.4756
     19 C         138.4196  139.2854  165.4917 C.ar    1  UNL1       -0.0059
     20 C         138.8023  138.1562  164.5816 C.ar    1  UNL1        0.0002
     21 C         138.7680  138.3471  163.0943 C.ar    1  UNL1        0.0366
     22 C         138.3509  139.6672  162.5170 C.ar    1  UNL1        0.1385
     23 C         137.9682  140.7964  163.4270 C.ar    1  UNL1        0.0366
     24 C         138.0025  140.6056  164.9144 C.ar    1  UNL1        0.0002
     25 C         138.4539  139.0946  166.9792 C.3     1  UNL1        0.0992
     26 C         141.7611  141.5988  170.3309 C.3     1  UNL1        0.0308
     27 C         140.6203  140.9197  169.6327 C.3     1  UNL1        0.1044
     28 O         139.8864  141.1810  170.9144 O.3     1  UNL1       -0.3853
     29 C         141.5928  140.8003  168.4968 C.3     1  UNL1        0.0456
     30 C         140.8996  140.1021  167.3645 C.3     1  UNL1        0.0749
     31 N         139.4987  139.7899  167.8006 N.3     1  UNL1       -0.2669
     32 C         139.3262  140.2952  169.2024 C.3     1  UNL1        0.0996
     33 H         140.4746  141.6369  171.5366 H       1  UNL1        0.2103
@<TRIPOS>BOND
     1    26    27    1
     2    27    28    1
     3    27    29    1
     4    29    30    1
     5    30    31    1
     6    31    25    1
     7    25    19    1
     8    19    20   ar
     9    20    21   ar
    10    21    22   ar
    11    22    18    1
    12    18     1    1
    13     1     2    1
    14     2     3    1
    15     3     4   am
    16     4     5    2
    17     4     7    1
    18     7     8   ar
    19     8     9   ar
    20     9    10   ar
    21    10    12    1
    22    12    13   ar
    23    13    14   ar
    24    14    15   ar
    25    15    16   ar
    26    16    17   ar
    27    10    11   ar
    28     3     6    1
    29    22    23   ar
    30    23    24   ar
    31    31    32    1
    32    32    27    1
    33    24    19   ar
    34     6     1    1
    35    11     7   ar
    36    17    12   ar
    37    28    33    1
@<TRIPOS>MOLECULE
*****
 33 37 0 0 0
SMALL
GASTEIGER

@<TRIPOS>ATOM
      1 C         139.0116  139.4029  160.1823 C.3     1  UNL1        0.2052
      2 C         139.8820  138.4394  159.4313 C.3     1  UNL1        0.1391
      3 N         140.6124  139.5890  158.8028 N.am    1  UNL1       -0.2647
      4 C         141.7443  139.7207  157.8273 C.2     1  UNL1        0.3047
      5 O         142.2245  141.0805  157.4147 O.2     1  UNL1       -0.2647
      6 C         139.7420  140.5525  159.5538 C.3     1  UNL1        0.1391
      7 C         142.3961  138.4925  157.2646 C.ar    1  UNL1        0.3043
      8 N         143.7377  138.4338  156.5964 N.ar    1  UNL1       -0.1021
      9 N         143.9914  137.0124  156.1900 N.ar    1  UNL1       -0.1068
     10 C         142.8065  136.1926  156.6071 C.ar    1  UNL1        0.2501
     11 O         141.8205  137.1073  157.2712 O.2     1  UNL1       -0.4122
     12 C         142.6373  134.7170  156.3970 C.ar    1  UNL1        0.0551
     13 C         141.6538  134.2116  155.3834 C.ar    1  UNL1        0.0047
     14 C         141.4846  132.7361  155.1733 C.ar    1  UNL1        0.0002
     15 C         142.2990  131.7659  155.9767 C.ar    1  UNL1        0.0000
     16 C         143.2825  132.2712  156.9903 C.ar    1  UNL1        0.0002
     17 C         143.4517  133.7467  157.2004 C.ar    1  UNL1        0.0047
     18 O         137.8798  139.2713  161.1577 O.3     1  UNL1       -0.4756
     19 C         138.7094  139.2719  165.5805 C.ar    1  UNL1       -0.0059
     20 C         139.0434  138.0649  164.7550 C.ar    1  UNL1        0.0002
     21 C         138.7668  138.0647  163.2807 C.ar    1  UNL1        0.0366
     22 C         138.1563  139.2715  162.6320 C.ar    1  UNL1        0.1385
     23 C         137.8224  140.4785  163.4576 C.ar    1  UNL1        0.0366
     24 C         138.0989  140.4787  164.9318 C.ar    1  UNL1        0.0002
     25 C         138.9860  139.2721  167.0549 C.3     1  UNL1        0.0992
     26 C         140.9275  143.3685  169.8642 C.3     1  UNL1        0.0308
     27 C         140.2544  142.1272  169.3581 C.3     1  UNL1        0.1044
     28 O         139.8082  141.9779  170.7823 O.3     1  UNL1       -0.3853
     29 C         140.8412  142.5361  168.0395 C.3     1  UNL1        0.0456
     30 C         140.4375  141.5163  167.0163 C.3     1  UNL1        0.0749
     31 N         139.6011  140.4772  167.7024 N.3     1  UNL1       -0.2669
     32 C         139.4879  140.8548  169.1497 C.3     1  UNL1        0.0996
     33 H         140.1533  142.7162  171.3083 H       1  UNL1        0.2103
@<TRIPOS>BOND
     1    26    27    1
     2    27    28    1
     3    27    29    1
     4    29    30    1
     5    30    31    1
     6    31    25    1
     7    25    19    1
     8    19    20   ar
     9    20    21   ar
    10    21    22   ar
    11    22    18    1
    12    18     1    1
    13     1     2    1
    14     2     3    1
    15     3     4   am
    16     4     5    2
    17     4     7    1
    18     7     8   ar
    19     8     9   ar
    20     9    10   ar
    21    10    12    1
    22    12    13   ar
    23    13    14   ar
    24    14    15   ar
    25    15    16   ar
    26    16    17   ar
    27    10    11   ar
    28     3     6    1
    29    22    23   ar
    30    23    24   ar
    31    31    32    1
    32    32    27    1
    33    24    19   ar
    34     6     1    1
    35    11     7   ar
    36    17    12   ar
    37    28    33    1
@<TRIPOS>MOLECULE
*****
 33 37 0 0 0
SMALL
GASTEIGER

@<TRIPOS>ATOM
      1 C         143.8729  140.3703  161.3959 C.3     1  UNL1        0.2052
      2 C         144.1179  139.2814  160.3937 C.3     1  UNL1        0.1391
      3 N         142.8828  139.6904  159.6474 N.am    1  UNL1       -0.2647
      4 C         142.1826  139.2097  158.4109 C.2     1  UNL1        0.3047
      5 O         140.9261  139.8866  157.9494 O.2     1  UNL1       -0.2647
      6 C         142.6377  140.7793  160.6495 C.3     1  UNL1        0.1391
      7 C         142.7389  138.0521  157.6361 C.ar    1  UNL1        0.3043
      8 N         143.6989  138.1403  156.4870 N.ar    1  UNL1       -0.1021
      9 N         143.9862  136.7458  156.0150 N.ar    1  UNL1       -0.1068
     10 C         143.2038  135.7958  156.8724 C.ar    1  UNL1        0.2501
     11 O         142.4328  136.6031  157.8744 O.2     1  UNL1       -0.4122
     12 C         143.1939  134.3008  156.7496 C.ar    1  UNL1        0.0551
     13 C         142.2217  133.6306  155.8246 C.ar    1  UNL1        0.0047
     14 C         142.2118  132.1357  155.7018 C.ar    1  UNL1        0.0002
     15 C         143.1742  131.3109  156.5039 C.ar    1  UNL1        0.0000
     16 C         144.1465  131.9811  157.4289 C.ar    1  UNL1        0.0002
     17 C         144.1564  133.4760  157.5518 C.ar    1  UNL1        0.0047
     18 O         144.5731  140.8510  162.6323 O.3     1  UNL1       -0.4756
     19 C         142.9745  139.7547  166.6934 C.ar    1  UNL1       -0.0059
     20 C         143.3368  138.6777  165.7143 C.ar    1  UNL1        0.0002
     21 C         143.8696  139.0432  164.3606 C.ar    1  UNL1        0.0366
     22 C         144.0402  140.4856  163.9861 C.ar    1  UNL1        0.1385
     23 C         143.6779  141.5626  164.9652 C.ar    1  UNL1        0.0366
     24 C         143.1451  141.1972  166.3189 C.ar    1  UNL1        0.0002
     25 C         142.4417  139.3893  168.0472 C.3     1  UNL1        0.0992
     26 C         139.6267  142.7676  171.0646 C.3     1  UNL1        0.0308
     27 C         140.6339  141.8371  170.4567 C.3     1  UNL1        0.1044
     28 O         141.4187  142.1258  171.7018 O.3     1  UNL1       -0.3853
     29 C         139.6384  141.7428  169.3385 C.3     1  UNL1        0.0456
     30 C         140.1945  140.8144  168.2998 C.3     1  UNL1        0.0749
     31 N         141.5336  140.3349  168.7760 N.3     1  UNL1       -0.2669
     32 C         141.8051  140.9669  170.1090 C.3     1  UNL1        0.0996
     33 H         140.9202  142.7400  172.2631 H       1  UNL1        0.2103
@<TRIPOS>BOND
     1    26    27    1
     2    27    28    1
     3    27    29    1
     4    29    30    1
     5    30    31    1
     6    31    25    1
     7    25    19    1
     8    19    20   ar
     9    20    21   ar
    10    21    22   ar
    11    22    18    1
    12    18     1    1
    13     1     2    1
    14     2     3    1
    15     3     4   am
    16     4     5    2
    17     4     7    1
    18     7     8   ar
    19     8     9   ar
    20     9    10   ar
    21    10    12    1
    22    12    13   ar
    23    13    14   ar
    24    14    15   ar
    25    15    16   ar
    26    16    17   ar
    27    10    11   ar
    28     3     6    1
    29    22    23   ar
    30    23    24   ar
    31    31    32    1
    32    32    27    1
    33    24    19   ar
    34     6     1    1
    35    11     7   ar
    36    17    12   ar
    37    28    33    1
@<TRIPOS>MOLECULE
*****
 33 37 0 0 0
SMALL
GASTEIGER

@<TRIPOS>ATOM
      1 C         143.3913  138.3485  161.2465 C.3     1  UNL1        0.2052
      2 C         143.1372  137.2907  160.2138 C.3     1  UNL1        0.1391
      3 N         142.8644  138.3541  159.1917 N.am    1  UNL1       -0.2647
      4 C         142.4918  138.3580  157.7386 C.2     1  UNL1        0.3047
      5 O         142.2941  139.6589  157.0186 O.2     1  UNL1       -0.2647
      6 C         143.1185  139.4119  160.2243 C.3     1  UNL1        0.1391
      7 C         142.3169  137.0610  157.0057 C.ar    1  UNL1        0.3043
      8 N         141.1635  136.6987  156.1178 N.ar    1  UNL1       -0.1021
      9 N         141.3985  135.3124  155.5953 N.ar    1  UNL1       -0.1068
     10 C         142.6971  134.8180  156.1603 C.ar    1  UNL1        0.2501
     11 O         143.2647  135.8987  157.0320 O.2     1  UNL1       -0.4122
     12 C         143.3189  133.4781  155.8995 C.ar    1  UNL1        0.0551
     13 C         144.3516  132.9342  156.8417 C.ar    1  UNL1        0.0047
     14 C         144.9734  131.5943  156.5809 C.ar    1  UNL1        0.0002
     15 C         144.5625  130.7983  155.3778 C.ar    1  UNL1        0.0000
     16 C         143.5299  131.3421  154.4355 C.ar    1  UNL1        0.0002
     17 C         142.9081  132.6820  154.6963 C.ar    1  UNL1        0.0047
     18 O         143.7639  138.3446  162.6994 O.3     1  UNL1       -0.4756
     19 C         140.6659  139.3034  165.8192 C.ar    1  UNL1       -0.0059
     20 C         140.2498  139.0619  164.3985 C.ar    1  UNL1        0.0002
     21 C         141.2825  138.7423  163.3586 C.ar    1  UNL1        0.0366
     22 C         142.7312  138.6642  163.7394 C.ar    1  UNL1        0.1385
     23 C         143.1473  138.9057  165.1602 C.ar    1  UNL1        0.0366
     24 C         142.1146  139.2252  166.2000 C.ar    1  UNL1        0.0002
     25 C         139.6332  139.6230  166.8592 C.3     1  UNL1        0.0992
     26 C         140.8294  142.2203  171.3608 C.3     1  UNL1        0.0308
     27 C         140.4551  141.2363  170.2924 C.3     1  UNL1        0.1044
     28 O         140.3595  140.2702  171.4357 O.3     1  UNL1       -0.3853
     29 C         140.6290  142.4082  169.3723 C.3     1  UNL1        0.0456
     30 C         140.3423  141.9465  167.9742 C.3     1  UNL1        0.0749
     31 N         139.9912  140.4892  168.0302 N.3     1  UNL1       -0.2669
     32 C         140.0609  140.0503  169.4629 C.3     1  UNL1        0.0996
     33 H         140.5744  140.7271  172.2639 H       1  UNL1        0.2103
@<TRIPOS>BOND
     1    26    27    1
     2    27    28    1
     3    27    29    1
     4    29    30    1
     5    30    31    1
     6    31    25    1
     7    25    19    1
     8    19    20   ar
     9    20    21   ar
    10    21    22   ar
    11    22    18    1
    12    18     1    1
    13     1     2    1
    14     2     3    1
    15     3     4   am
    16     4     5    2
    17     4     7    1
    18     7     8   ar
    19     8     9   ar
    20     9    10   ar
    21    10    12    1
    22    12    13   ar
    23    13    14   ar
    24    14    15   ar
    25    15    16   ar
    26    16    17   ar
    27    10    11   ar
    28     3     6    1
    29    22    23   ar
    30    23    24   ar
    31    31    32    1
    32    32    27    1
    33    24    19   ar
    34     6     1    1
    35    11     7   ar
    36    17    12   ar
    37    28    33    1
@<TRIPOS>MOLECULE
*****
 33 37 0 0 0
SMALL
GASTEIGER

@<TRIPOS>ATOM
      1 C         143.6266  142.0715  159.9856 C.3     1  UNL1        0.2052
      2 C         143.5384  141.8419  161.4653 C.3     1  UNL1        0.1391
      3 N         142.6960  143.0749  161.6064 N.am    1  UNL1       -0.2647
      4 C         142.0378  143.7845  162.7525 C.2     1  UNL1        0.3047
      5 O         141.2469  145.0349  162.5058 O.2     1  UNL1       -0.2647
      6 C         142.7842  143.3045  160.1267 C.3     1  UNL1        0.1391
      7 C         142.1707  143.2436  164.1453 C.ar    1  UNL1        0.3043
      8 N         143.4572  142.9383  164.8535 N.ar    1  UNL1       -0.1021
      9 N         143.1219  142.4191  166.2203 N.ar    1  UNL1       -0.1068
     10 C         141.6282  142.4035  166.3567 C.ar    1  UNL1        0.2501
     11 O         141.0402  142.9132  165.0742 O.2     1  UNL1       -0.4122
     12 C         140.8577  141.9568  167.5636 C.ar    1  UNL1        0.0551
     13 C         140.7066  142.8758  168.7396 C.ar    1  UNL1        0.0047
     14 C         139.9361  142.4291  169.9465 C.ar    1  UNL1        0.0002
     15 C         139.3166  141.0633  169.9776 C.ar    1  UNL1        0.0000
     16 C         139.4676  140.1443  168.8017 C.ar    1  UNL1        0.0002
     17 C         140.2381  140.5911  167.5947 C.ar    1  UNL1        0.0047
     18 O         144.2847  141.3620  158.8396 O.3     1  UNL1       -0.4756
     19 C         142.4058  137.6571  157.1095 C.ar    1  UNL1       -0.0059
     20 C         143.1434  138.6107  156.2170 C.ar    1  UNL1        0.0002
     21 C         143.7696  139.8456  156.7937 C.ar    1  UNL1        0.0366
     22 C         143.6584  140.1269  158.2629 C.ar    1  UNL1        0.1385
     23 C         142.9208  139.1733  159.1554 C.ar    1  UNL1        0.0366
     24 C         142.2945  137.9384  158.5787 C.ar    1  UNL1        0.0002
     25 C         141.7795  136.4220  156.5328 C.3     1  UNL1        0.0992
     26 C         144.7839  132.0171  156.6436 C.3     1  UNL1        0.0308
     27 C         144.0248  133.2802  156.9235 C.3     1  UNL1        0.1044
     28 O         144.5846  133.1240  158.3063 O.3     1  UNL1       -0.3853
     29 C         143.6237  133.1724  155.4821 C.3     1  UNL1        0.0456
     30 C         142.7338  134.3362  155.1604 C.3     1  UNL1        0.0749
     31 N         142.5849  135.1633  156.4028 N.3     1  UNL1       -0.2669
     32 C         143.3828  134.5107  157.4925 C.3     1  UNL1        0.0996
     33 H         145.1348  132.3260  158.3441 H       1  UNL1        0.2103
@<TRIPOS>BOND
     1    26    27    1
     2    27    28    1
     3    27    29    1
     4    29    30    1
     5    30    31    1
     6    31    25    1
     7    25    19    1
     8    19    20   ar
     9    20    21   ar
    10    21    22   ar
    11    22    18    1
    12    18     1    1
    13     1     2    1
    14     2     3    1
    15     3     4   am
    16     4     5    2
    17     4     7    1
    18     7     8   ar
    19     8     9   ar
    20     9    10   ar
    21    10    12    1
    22    12    13   ar
    23    13    14   ar
    24    14    15   ar
    25    15    16   ar
    26    16    17   ar
    27    10    11   ar
    28     3     6    1
    29    22    23   ar
    30    23    24   ar
    31    31    32    1
    32    32    27    1
    33    24    19   ar
    34     6     1    1
    35    11     7   ar
    36    17    12   ar
    37    28    33    1
@<TRIPOS>MOLECULE
*****
 33 37 0 0 0
SMALL
GASTEIGER

@<TRIPOS>ATOM
      1 C         139.5731  139.3560  158.1295 C.3     1  UNL1        0.2052
      2 C         140.0965  138.0679  157.5666 C.3     1  UNL1        0.1391
      3 N         141.4688  138.6663  157.4732 N.am    1  UNL1       -0.2647
      4 C         142.8093  138.1786  157.0091 C.2     1  UNL1        0.3047
      5 O         143.9993  139.0900  157.0645 O.2     1  UNL1       -0.2647
      6 C         140.9454  139.9544  158.0360 C.3     1  UNL1        0.1391
      7 C         142.9597  136.7795  156.4896 C.ar    1  UNL1        0.3043
      8 N         142.8287  136.3519  155.0579 N.ar    1  UNL1       -0.1021
      9 N         143.0555  134.8705  154.9940 N.ar    1  UNL1       -0.1068
     10 C         143.3267  134.3827  156.3863 C.ar    1  UNL1        0.2501
     11 O         143.2675  135.5625  157.3107 O.2     1  UNL1       -0.4122
     12 C         143.6078  132.9641  156.7844 C.ar    1  UNL1        0.0551
     13 C         142.7074  131.8605  156.3138 C.ar    1  UNL1        0.0047
     14 C         142.9885  130.4419  156.7119 C.ar    1  UNL1        0.0002
     15 C         144.1700  130.1268  157.5806 C.ar    1  UNL1        0.0000
     16 C         145.0705  131.2303  158.0512 C.ar    1  UNL1        0.0002
     17 C         144.7894  132.6489  157.6531 C.ar    1  UNL1        0.0047
     18 O         138.2327  139.8437  158.5935 O.3     1  UNL1       -0.4756
     19 C         137.8146  141.7617  162.6428 C.ar    1  UNL1       -0.0059
     20 C         137.5940  140.2864  162.4853 C.ar    1  UNL1        0.0002
     21 C         137.7334  139.6471  161.1356 C.ar    1  UNL1        0.0366
     22 C         138.0934  140.4831  159.9433 C.ar    1  UNL1        0.1385
     23 C         138.3139  141.9584  160.1007 C.ar    1  UNL1        0.0366
     24 C         138.1745  142.5977  161.4505 C.ar    1  UNL1        0.0002
     25 C         137.6752  142.4011  163.9926 C.3     1  UNL1        0.0992
     26 C         141.4594  141.4339  167.6239 C.3     1  UNL1        0.0308
     27 C         140.3173  141.3957  166.6522 C.3     1  UNL1        0.1044
     28 O         140.1997  139.9655  167.0887 O.3     1  UNL1       -0.3853
     29 C         140.6737  142.8340  166.4188 C.3     1  UNL1        0.0456
     30 C         139.7273  143.3856  165.3941 C.3     1  UNL1        0.0749
     31 N         138.7860  142.2883  164.9942 N.3     1  UNL1       -0.2669
     32 C         139.1507  141.0585  165.7717 C.3     1  UNL1        0.0996
     33 H         140.8820  139.7723  167.7505 H       1  UNL1        0.2103
@<TRIPOS>BOND
     1    26    27    1
     2    27    28    1
     3    27    29    1
     4    29    30    1
     5    30    31    1
     6    31    25    1
     7    25    19    1
     8    19    20   ar
     9    20    21   ar
    10    21    22   ar
    11    22    18    1
    12    18     1    1
    13     1     2    1
    14     2     3    1
    15     3     4   am
    16     4     5    2
    17     4     7    1
    18     7     8   ar
    19     8     9   ar
    20     9    10   ar
    21    10    12    1
    22    12    13   ar
    23    13    14   ar
    24    14    15   ar
    25    15    16   ar
    26    16    17   ar
    27    10    11   ar
    28     3     6    1
    29    22    23   ar
    30    23    24   ar
    31    31    32    1
    32    32    27    1
    33    24    19   ar
    34     6     1    1
    35    11     7   ar
    36    17    12   ar
    37    28    33    1
@<TRIPOS>MOLECULE
*****
 33 37 0 0 0
SMALL
GASTEIGER

@<TRIPOS>ATOM
      1 C         140.5772  139.4147  160.8727 C.3     1  UNL1        0.2052
      2 C         141.2135  138.3955  159.9747 C.3     1  UNL1        0.1391
      3 N         141.6546  139.4885  159.0468 N.am    1  UNL1       -0.2647
      4 C         142.4165  139.5407  157.7557 C.2     1  UNL1        0.3047
      5 O         142.6779  140.8602  157.0920 O.2     1  UNL1       -0.2647
      6 C         141.0184  140.5076  159.9449 C.3     1  UNL1        0.1391
      7 C         142.9169  138.2734  157.1284 C.ar    1  UNL1        0.3043
      8 N         144.1160  138.1449  156.2366 N.ar    1  UNL1       -0.1021
      9 N         144.2463  136.7042  155.8398 N.ar    1  UNL1       -0.1068
     10 C         143.1275  135.9424  156.4863 C.ar    1  UNL1        0.2501
     11 O         142.3058  136.9122  157.2828 O.2     1  UNL1       -0.4122
     12 C         142.8748  134.4693  156.3589 C.ar    1  UNL1        0.0551
     13 C         143.6884  133.4966  157.1600 C.ar    1  UNL1        0.0047
     14 C         143.4356  132.0235  157.0325 C.ar    1  UNL1        0.0002
     15 C         142.3692  131.5232  156.1040 C.ar    1  UNL1        0.0000
     16 C         141.5555  132.4959  155.3028 C.ar    1  UNL1        0.0002
     17 C         141.8083  133.9689  155.4303 C.ar    1  UNL1        0.0047
     18 O         139.8154  139.3625  162.1638 O.3     1  UNL1       -0.4756
     19 C         142.0292  139.1432  166.0754 C.ar    1  UNL1       -0.0059
     20 C         140.6834  139.8024  166.0112 C.ar    1  UNL1        0.0002
     21 C         139.9455  139.8755  164.7074 C.ar    1  UNL1        0.0366
     22 C         140.5534  139.2894  163.4677 C.ar    1  UNL1        0.1385
     23 C         141.8992  138.6301  163.5318 C.ar    1  UNL1        0.0366
     24 C         142.6371  138.5570  164.8357 C.ar    1  UNL1        0.0002
     25 C         142.7672  139.0700  167.3793 C.3     1  UNL1        0.0992
     26 C         142.4305  142.7267  171.2468 C.3     1  UNL1        0.0308
     27 C         142.4823  141.4885  170.4017 C.3     1  UNL1        0.1044
     28 O         142.2725  140.7791  171.7066 O.3     1  UNL1       -0.3853
     29 C         142.6813  142.4567  169.2734 C.3     1  UNL1        0.0456
     30 C         142.8123  141.6686  168.0039 C.3     1  UNL1        0.0749
     31 N         142.6942  140.2133  168.3476 N.3     1  UNL1       -0.2669
     32 C         142.4903  140.1020  169.8295 C.3     1  UNL1        0.0996
     33 H         142.2090  141.4308  172.4223 H       1  UNL1        0.2103
@<TRIPOS>BOND
     1    26    27    1
     2    27    28    1
     3    27    29    1
     4    29    30    1
     5    30    31    1
     6    31    25    1
     7    25    19    1
     8    19    20   ar
     9    20    21   ar
    10    21    22   ar
    11    22    18    1
    12    18     1    1
    13     1     2    1
    14     2     3    1
    15     3     4   am
    16     4     5    2
    17     4     7    1
    18     7     8   ar
    19     8     9   ar
    20     9    10   ar
    21    10    12    1
    22    12    13   ar
    23    13    14   ar
    24    14    15   ar
    25    15    16   ar
    26    16    17   ar
    27    10    11   ar
    28     3     6    1
    29    22    23   ar
    30    23    24   ar
    31    31    32    1
    32    32    27    1
    33    24    19   ar
    34     6     1    1
    35    11     7   ar
    36    17    12   ar
    37    28    33    1
@<TRIPOS>MOLECULE
*****
 33 37 0 0 0
SMALL
GASTEIGER

@<TRIPOS>ATOM
      1 C         142.9581  141.1074  160.3541 C.3     1  UNL1        0.2052
      2 C         143.5132  140.0042  159.5028 C.3     1  UNL1        0.1391
      3 N         142.1201  139.5885  159.1333 N.am    1  UNL1       -0.2647
      4 C         141.5275  138.5144  158.2700 C.2     1  UNL1        0.3047
      5 O         140.0383  138.3984  158.1333 O.2     1  UNL1       -0.2647
      6 C         141.5650  140.6917  159.9845 C.3     1  UNL1        0.1391
      7 C         142.4242  137.5563  157.5433 C.ar    1  UNL1        0.3043
      8 N         143.4949  137.9243  156.5594 N.ar    1  UNL1       -0.1021
      9 N         144.1400  136.6574  156.0810 N.ar    1  UNL1       -0.1068
     10 C         143.4680  135.5065  156.7693 C.ar    1  UNL1        0.2501
     11 O         142.4075  136.0620  157.6731 O.2     1  UNL1       -0.4122
     12 C         143.7984  134.0549  156.5860 C.ar    1  UNL1        0.0551
     13 C         144.4900  133.2988  157.6815 C.ar    1  UNL1        0.0047
     14 C         144.8204  131.8472  157.4982 C.ar    1  UNL1        0.0002
     15 C         144.4592  131.1515  156.2194 C.ar    1  UNL1        0.0000
     16 C         143.7676  131.9075  155.1238 C.ar    1  UNL1        0.0002
     17 C         143.4372  133.3591  155.3071 C.ar    1  UNL1        0.0047
     18 O         143.5506  142.1815  161.2174 O.3     1  UNL1       -0.4756
     19 C         143.1070  141.9732  165.6906 C.ar    1  UNL1       -0.0059
     20 C         142.5481  143.1423  164.9352 C.ar    1  UNL1        0.0002
     21 C         142.6960  143.2117  163.4441 C.ar    1  UNL1        0.0366
     22 C         143.4028  142.1120  162.7085 C.ar    1  UNL1        0.1385
     23 C         143.9617  140.9429  163.4640 C.ar    1  UNL1        0.0366
     24 C         143.8138  140.8735  164.9550 C.ar    1  UNL1        0.0002
     25 C         142.9592  141.9038  167.1817 C.3     1  UNL1        0.0992
     26 C         138.6335  140.2350  169.8173 C.3     1  UNL1        0.0308
     27 C         139.9104  140.8676  169.3489 C.3     1  UNL1        0.1044
     28 O         139.9183  141.4902  170.7135 O.3     1  UNL1       -0.3853
     29 C         139.6355  140.1128  168.0821 C.3     1  UNL1        0.0456
     30 C         140.7442  140.4091  167.1161 C.3     1  UNL1        0.0749
     31 N         141.7042  141.3470  167.7859 N.3     1  UNL1       -0.2669
     32 C         141.1889  141.6304  169.1658 C.3     1  UNL1        0.0996
     33 H         139.1368  141.1967  171.2073 H       1  UNL1        0.2103
@<TRIPOS>BOND
     1    26    27    1
     2    27    28    1
     3    27    29    1
     4    29    30    1
     5    30    31    1
     6    31    25    1
     7    25    19    1
     8    19    20   ar
     9    20    21   ar
    10    21    22   ar
    11    22    18    1
    12    18     1    1
    13     1     2    1
    14     2     3    1
    15     3     4   am
    16     4     5    2
    17     4     7    1
    18     7     8   ar
    19     8     9   ar
    20     9    10   ar
    21    10    12    1
    22    12    13   ar
    23    13    14   ar
    24    14    15   ar
    25    15    16   ar
    26    16    17   ar
    27    10    11   ar
    28     3     6    1
    29    22    23   ar
    30    23    24   ar
    31    31    32    1
    32    32    27    1
    33    24    19   ar
    34     6     1    1
    35    11     7   ar
    36    17    12   ar
    37    28    33    1
@<TRIPOS>MOLECULE
*****
 33 37 0 0 0
SMALL
GASTEIGER

@<TRIPOS>ATOM
      1 C         142.4794  137.9472  158.0819 C.3     1  UNL1        0.2052
      2 C         142.4988  137.7766  159.5721 C.3     1  UNL1        0.1391
      3 N         141.1491  138.4247  159.6638 N.am    1  UNL1       -0.2647
      4 C         140.2083  138.7623  160.7823 C.2     1  UNL1        0.3047
      5 O         138.8997  139.4324  160.4852 O.2     1  UNL1       -0.2647
      6 C         141.1298  138.5953  158.1736 C.3     1  UNL1        0.1391
      7 C         140.5763  138.4298  162.1979 C.ar    1  UNL1        0.3043
      8 N         141.0166  137.0876  162.7023 N.ar    1  UNL1       -0.1021
      9 N         141.2810  137.2093  164.1738 N.ar    1  UNL1       -0.1068
     10 C         141.0041  138.6268  164.5788 C.ar    1  UNL1        0.2501
     11 O         140.5685  139.3812  163.3576 O.2     1  UNL1       -0.4122
     12 C         141.1390  139.1910  165.9621 C.ar    1  UNL1        0.0551
     13 C         139.9421  139.7712  166.6556 C.ar    1  UNL1        0.0047
     14 C         140.0770  140.3354  168.0389 C.ar    1  UNL1        0.0002
     15 C         141.4089  140.3194  168.7287 C.ar    1  UNL1        0.0000
     16 C         142.6058  139.7392  168.0353 C.ar    1  UNL1        0.0002
     17 C         142.4709  139.1750  166.6520 C.ar    1  UNL1        0.0047
     18 O         143.4201  137.6096  156.9634 O.3     1  UNL1       -0.4756
     19 C         142.9250  133.7562  154.6928 C.ar    1  UNL1       -0.0059
     20 C         143.5266  133.7451  156.0668 C.ar    1  UNL1        0.0002
     21 C         143.6916  135.0295  156.8236 C.ar    1  UNL1        0.0366
     22 C         143.2550  136.3251  156.2065 C.ar    1  UNL1        0.1385
     23 C         142.6535  136.3362  154.8325 C.ar    1  UNL1        0.0366
     24 C         142.4884  135.0518  154.0756 C.ar    1  UNL1        0.0002
     25 C         142.7599  132.4717  153.9358 C.3     1  UNL1        0.0992
     26 C         144.4170  127.8488  156.0155 C.3     1  UNL1        0.0308
     27 C         144.2410  129.1481  155.2869 C.3     1  UNL1        0.1044
     28 O         145.6230  128.8678  154.7758 O.3     1  UNL1       -0.3853
     29 C         142.8957  129.1569  155.9504 C.3     1  UNL1        0.0456
     30 C         142.1772  130.4030  155.5250 C.3     1  UNL1        0.0749
     31 N         143.0783  131.1643  154.5986 N.3     1  UNL1       -0.2669
     32 C         144.3539  130.3888  154.4515 C.3     1  UNL1        0.0996
     33 H         145.9403  128.0288  155.1450 H       1  UNL1        0.2103
@<TRIPOS>BOND
     1    26    27    1
     2    27    28    1
     3    27    29    1
     4    29    30    1
     5    30    31    1
     6    31    25    1
     7    25    19    1
     8    19    20   ar
     9    20    21   ar
    10    21    22   ar
    11    22    18    1
    12    18     1    1
    13     1     2    1
    14     2     3    1
    15     3     4   am
    16     4     5    2
    17     4     7    1
    18     7     8   ar
    19     8     9   ar
    20     9    10   ar
    21    10    12    1
    22    12    13   ar
    23    13    14   ar
    24    14    15   ar
    25    15    16   ar
    26    16    17   ar
    27    10    11   ar
    28     3     6    1
    29    22    23   ar
    30    23    24   ar
    31    31    32    1
    32    32    27    1
    33    24    19   ar
    34     6     1    1
    35    11     7   ar
    36    17    12   ar
    37    28    33    1
