@<TRIPOS>MOLECULE
*****
 33 38 0 0 0
SMALL
GASTEIGER

@<TRIPOS>ATOM
      1 C         142.5584  136.7381  157.7526 C.3     1  UNL1        0.1161
      2 C         143.2787  135.4381  157.5491 C.3     1  UNL1        0.0510
      3 C         142.9235  134.5577  156.3878 C.2     1  UNL1       -0.0044
      4 C         141.8481  134.9773  155.4299 C.2     1  UNL1        0.0689
      5 N         141.7162  133.9097  154.3845 N.2     1  UNL1       -0.2526
      6 C         142.7101  132.8303  154.6963 C.2     1  UNL1        0.0627
      7 C         143.0321  131.5346  154.0128 C.3     1  UNL1        0.0717
      8 C         144.1002  130.6393  154.5673 C.2     1  UNL1       -0.0198
      9 C         144.8464  131.0398  155.8054 C.2     1  UNL1       -0.0042
     10 C         144.5244  132.3356  156.4889 C.2     1  UNL1        0.0006
     11 C         143.4563  133.2309  155.9344 C.2     1  UNL1        0.0111
     12 C         141.1278  136.2773  155.6334 C.3     1  UNL1        0.0949
     13 N         141.4830  137.1577  156.7947 N.3     1  UNL1       -0.2887
     14 H         140.6316  137.2797  157.3430 H       1  UNL1        0.1239
     15 C         143.2370  138.4372  161.1757 C.ar    1  UNL1        0.0947
     16 C         143.6835  139.5093  160.2265 C.ar    1  UNL1        0.1187
     17 N         143.4837  139.0034  158.8286 N.ar    1  UNL1       -0.2282
     18 C         142.9137  137.6186  158.9140 C.ar    1  UNL1        0.1318
     19 N         142.7612  137.2686  160.3645 N.ar    1  UNL1       -0.3385
     20 H         142.4104  136.4208  160.7215 H       1  UNL1        0.1672
     21 F         143.3367  138.7654  167.1660 F       1  UNL1       -0.2025
     22 C         143.3118  138.6833  165.6684 C.ar    1  UNL1        0.1592
     23 C         144.4272  139.2845  164.8657 C.ar    1  UNL1        0.0328
     24 C         144.4023  139.2025  163.3682 C.ar    1  UNL1        0.0230
     25 C         143.2619  138.5192  162.6733 C.ar    1  UNL1        0.0986
     26 N         142.1465  137.9181  163.4760 N.ar    1  UNL1       -0.2400
     27 C         142.1714  138.0001  164.9735 C.ar    1  UNL1        0.1284
     28 C         140.0524  136.6968  154.6756 C.3     1  UNL1        0.0252
     29 C         140.2999  136.6379  153.1974 C.3     1  UNL1        0.0339
     30 C         139.2244  137.0575  152.2396 C.3     1  UNL1        0.1422
     31 O         137.9015  137.5360  152.7600 O.3     1  UNL1       -0.3538
     32 C         137.6540  137.5949  154.2383 C.3     1  UNL1        0.1422
     33 C         138.7294  137.1753  155.1960 C.3     1  UNL1        0.0339
@<TRIPOS>BOND
     1    21    22    1
     2    22    23   ar
     3    23    24   ar
     4    24    25   ar
     5    25    15    1
     6    15    16   ar
     7    16    17   ar
     8    17    18   ar
     9     1    18    1
    10     1     2    1
    11     2     3    1
    12     3     4    2
    13     4     5    1
    14     5     6    2
    15     6     7    1
    16     7     8    1
    17     8     9    2
    18     9    10    1
    19    10    11    2
    20     4    12    1
    21    12    28    1
    22    28    29    1
    23    29    30    1
    24    30    31    1
    25    31    32    1
    26    32    33    1
    27    12    13    1
    28    18    19   ar
    29    25    26   ar
    30    26    27   ar
    31    27    22   ar
    32    19    15   ar
    33    13     1    1
    34    11     3    1
    35    33    28    1
    36    11     6    1
    37    13    14    1
    38    19    20    1
@<TRIPOS>MOLECULE
*****
 33 38 0 0 0
SMALL
GASTEIGER

@<TRIPOS>ATOM
      1 C         142.0940  140.0292  160.5468 C.3     1  UNL1        0.1161
      2 C         142.5495  139.3785  161.8193 C.3     1  UNL1        0.0510
      3 C         142.2410  140.0177  163.1407 C.2     1  UNL1       -0.0044
      4 C         141.4771  141.3076  163.1897 C.2     1  UNL1        0.0689
      5 N         141.3217  141.6999  164.6291 N.2     1  UNL1       -0.2526
      6 C         141.9897  140.6524  165.4698 C.2     1  UNL1        0.0627
      7 C         142.1539  140.5110  166.9540 C.3     1  UNL1        0.0717
      8 C         142.8863  139.3298  167.5183 C.2     1  UNL1       -0.0198
      9 C         143.4544  138.2901  166.5984 C.2     1  UNL1       -0.0042
     10 C         143.2902  138.4316  165.1142 C.2     1  UNL1        0.0006
     11 C         142.5578  139.6127  164.5499 C.2     1  UNL1        0.0111
     12 C         141.0216  141.9584  161.9173 C.3     1  UNL1        0.0949
     13 N         141.3301  141.3192  160.5958 N.3     1  UNL1       -0.2887
     14 H         141.8664  141.9996  160.0576 H       1  UNL1        0.1239
     15 C         142.7932  137.7278  157.5005 C.ar    1  UNL1        0.0947
     16 C         142.9611  139.0845  156.8833 C.ar    1  UNL1        0.1187
     17 N         142.7197  140.1118  157.9493 N.ar    1  UNL1       -0.2282
     18 C         142.4025  139.3899  159.2253 C.ar    1  UNL1        0.1318
     19 N         142.4480  137.9165  158.9480 N.ar    1  UNL1       -0.3385
     20 H         142.2806  137.1993  159.6013 H       1  UNL1        0.1672
     21 F         143.3967  132.4689  154.6754 F       1  UNL1       -0.2025
     22 C         143.2458  133.7837  155.3817 C.ar    1  UNL1        0.1592
     23 C         142.9768  135.0316  154.5941 C.ar    1  UNL1        0.0328
     24 C         142.8259  136.3463  155.3004 C.ar    1  UNL1        0.0230
     25 C         142.9441  136.4130  156.7942 C.ar    1  UNL1        0.0986
     26 N         143.2131  135.1651  157.5818 N.ar    1  UNL1       -0.2400
     27 C         143.3640  133.8505  156.8755 C.ar    1  UNL1        0.1284
     28 C         140.2577  143.2483  161.9662 C.3     1  UNL1        0.0252
     29 C         140.8103  144.4730  161.2995 C.3     1  UNL1        0.0339
     30 C         140.0463  145.7630  161.3485 C.3     1  UNL1        0.1422
     31 O         138.7297  145.8282  162.0643 O.3     1  UNL1       -0.3538
     32 C         138.1771  144.6035  162.7311 C.3     1  UNL1        0.1422
     33 C         138.9411  143.3136  162.6821 C.3     1  UNL1        0.0339
@<TRIPOS>BOND
     1    21    22    1
     2    22    23   ar
     3    23    24   ar
     4    24    25   ar
     5    25    15    1
     6    15    16   ar
     7    16    17   ar
     8    17    18   ar
     9     1    18    1
    10     1     2    1
    11     2     3    1
    12     3     4    2
    13     4     5    1
    14     5     6    2
    15     6     7    1
    16     7     8    1
    17     8     9    2
    18     9    10    1
    19    10    11    2
    20     4    12    1
    21    12    28    1
    22    28    29    1
    23    29    30    1
    24    30    31    1
    25    31    32    1
    26    32    33    1
    27    12    13    1
    28    18    19   ar
    29    25    26   ar
    30    26    27   ar
    31    27    22   ar
    32    19    15   ar
    33    13     1    1
    34    11     3    1
    35    33    28    1
    36    11     6    1
    37    13    14    1
    38    19    20    1
@<TRIPOS>MOLECULE
*****
 33 38 0 0 0
SMALL
GASTEIGER

@<TRIPOS>ATOM
      1 C         139.4709  139.5608  157.4427 C.3     1  UNL1        0.1161
      2 C         139.1874  139.4840  158.9137 C.3     1  UNL1        0.0510
      3 C         138.7834  140.7178  159.6650 C.2     1  UNL1       -0.0044
      4 C         138.6629  142.0283  158.9454 C.2     1  UNL1        0.0689
      5 N         138.2481  143.0686  159.9433 N.2     1  UNL1       -0.2526
      6 C         138.1124  142.4009  161.2797 C.2     1  UNL1        0.0627
      7 C         137.7303  142.9283  162.6309 C.3     1  UNL1        0.0717
      8 C         137.6791  142.0027  163.8102 C.2     1  UNL1       -0.0198
      9 C         138.0099  140.5498  163.6382 C.2     1  UNL1       -0.0042
     10 C         138.3920  140.0225  162.2869 C.2     1  UNL1        0.0006
     11 C         138.4433  140.9480  161.1077 C.2     1  UNL1        0.0111
     12 C         138.9463  142.1051  157.4744 C.3     1  UNL1        0.0949
     13 N         139.3503  140.8713  156.7231 N.3     1  UNL1       -0.2887
     14 H         140.2619  141.0645  156.3083 H       1  UNL1        0.1239
     15 C         141.0549  136.3142  156.0229 C.ar    1  UNL1        0.0947
     16 C         139.9384  136.5425  155.0475 C.ar    1  UNL1        0.1187
     17 N         139.2092  137.7865  155.4606 N.ar    1  UNL1       -0.2282
     18 C         139.8749  138.3269  156.6913 C.ar    1  UNL1        0.1318
     19 N         141.0156  137.4170  157.0389 N.ar    1  UNL1       -0.3385
     20 H         141.6305  137.5247  157.8001 H       1  UNL1        0.1672
     21 F         144.9873  131.7846  155.8849 F       1  UNL1       -0.2025
     22 C         144.0042  132.9170  155.9194 C.ar    1  UNL1        0.1592
     23 C         143.0281  133.0973  154.7948 C.ar    1  UNL1        0.0328
     24 C         142.0450  134.2296  154.8293 C.ar    1  UNL1        0.0230
     25 C         142.0380  135.1817  155.9884 C.ar    1  UNL1        0.0986
     26 N         143.0141  135.0015  157.1130 N.ar    1  UNL1       -0.2400
     27 C         143.9972  133.8691  157.0784 C.ar    1  UNL1        0.1284
     28 C         138.8257  143.4157  156.7548 C.3     1  UNL1        0.0252
     29 C         139.8425  144.4940  156.9850 C.3     1  UNL1        0.0339
     30 C         139.7219  145.8046  156.2653 C.3     1  UNL1        0.1422
     31 O         138.5844  146.0368  155.3154 O.3     1  UNL1       -0.3538
     32 C         137.5675  144.9583  155.0852 C.3     1  UNL1        0.1422
     33 C         137.6881  143.6479  155.8049 C.3     1  UNL1        0.0339
@<TRIPOS>BOND
     1    21    22    1
     2    22    23   ar
     3    23    24   ar
     4    24    25   ar
     5    25    15    1
     6    15    16   ar
     7    16    17   ar
     8    17    18   ar
     9     1    18    1
    10     1     2    1
    11     2     3    1
    12     3     4    2
    13     4     5    1
    14     5     6    2
    15     6     7    1
    16     7     8    1
    17     8     9    2
    18     9    10    1
    19    10    11    2
    20     4    12    1
    21    12    28    1
    22    28    29    1
    23    29    30    1
    24    30    31    1
    25    31    32    1
    26    32    33    1
    27    12    13    1
    28    18    19   ar
    29    25    26   ar
    30    26    27   ar
    31    27    22   ar
    32    19    15   ar
    33    13     1    1
    34    11     3    1
    35    33    28    1
    36    11     6    1
    37    13    14    1
    38    19    20    1
@<TRIPOS>MOLECULE
*****
 33 38 0 0 0
SMALL
GASTEIGER

@<TRIPOS>ATOM
      1 C         141.7592  139.5058  160.7317 C.3     1  UNL1        0.1161
      2 C         140.9081  138.7241  161.6882 C.3     1  UNL1        0.0510
      3 C         140.5219  139.3214  163.0089 C.2     1  UNL1       -0.0044
      4 C         140.9868  140.7003  163.3730 C.2     1  UNL1        0.0689
      5 N         140.4510  141.0251  164.7359 N.2     1  UNL1       -0.2526
      6 C         139.6551  139.8470  165.2140 C.2     1  UNL1        0.0627
      7 C         138.8961  139.5971  166.4834 C.3     1  UNL1        0.0717
      8 C         138.1809  138.2942  166.6854 C.2     1  UNL1       -0.0198
      9 C         138.2247  137.2412  165.6180 C.2     1  UNL1       -0.0042
     10 C         138.9837  137.4911  164.3486 C.2     1  UNL1        0.0006
     11 C         139.6989  138.7941  164.1466 C.2     1  UNL1        0.0111
     12 C         141.8378  141.4819  162.4165 C.3     1  UNL1        0.0949
     13 N         142.2240  140.8846  161.0959 N.3     1  UNL1       -0.2887
     14 H         143.2435  140.8690  161.0667 H       1  UNL1        0.1239
     15 C         142.6888  137.3020  157.6748 C.ar    1  UNL1        0.0947
     16 C         142.7905  138.6765  157.0829 C.ar    1  UNL1        0.1187
     17 N         142.4547  139.6693  158.1559 N.ar    1  UNL1       -0.2282
     18 C         142.1454  138.9084  159.4110 C.ar    1  UNL1        0.1318
     19 N         142.2900  137.4453  159.1138 N.ar    1  UNL1       -0.3385
     20 H         142.1482  136.7085  159.7511 H       1  UNL1        0.1672
     21 F         143.6993  132.1373  154.7930 F       1  UNL1       -0.2025
     22 C         143.4466  133.4285  155.5134 C.ar    1  UNL1        0.1592
     23 C         143.0161  134.6435  154.7464 C.ar    1  UNL1        0.0328
     24 C         142.7635  135.9346  155.4669 C.ar    1  UNL1        0.0230
     25 C         142.9414  136.0108  156.9544 C.ar    1  UNL1        0.0986
     26 N         143.3720  134.7957  157.7214 N.ar    1  UNL1       -0.2400
     27 C         143.6246  133.5046  157.0009 C.ar    1  UNL1        0.1284
     28 C         142.3027  142.8607  162.7807 C.3     1  UNL1        0.0252
     29 C         143.7548  143.2179  162.6639 C.3     1  UNL1        0.0339
     30 C         144.2196  144.5969  163.0281 C.3     1  UNL1        0.1422
     31 O         143.2323  145.6185  163.5091 O.3     1  UNL1       -0.3538
     32 C         141.7801  145.2613  163.6258 C.3     1  UNL1        0.1422
     33 C         141.3153  143.8825  163.2617 C.3     1  UNL1        0.0339
@<TRIPOS>BOND
     1    21    22    1
     2    22    23   ar
     3    23    24   ar
     4    24    25   ar
     5    25    15    1
     6    15    16   ar
     7    16    17   ar
     8    17    18   ar
     9     1    18    1
    10     1     2    1
    11     2     3    1
    12     3     4    2
    13     4     5    1
    14     5     6    2
    15     6     7    1
    16     7     8    1
    17     8     9    2
    18     9    10    1
    19    10    11    2
    20     4    12    1
    21    12    28    1
    22    28    29    1
    23    29    30    1
    24    30    31    1
    25    31    32    1
    26    32    33    1
    27    12    13    1
    28    18    19   ar
    29    25    26   ar
    30    26    27   ar
    31    27    22   ar
    32    19    15   ar
    33    13     1    1
    34    11     3    1
    35    33    28    1
    36    11     6    1
    37    13    14    1
    38    19    20    1
@<TRIPOS>MOLECULE
*****
 33 38 0 0 0
SMALL
GASTEIGER

@<TRIPOS>ATOM
      1 C         142.4983  139.6359  158.2338 C.3     1  UNL1        0.1161
      2 C         143.1767  139.6454  159.5716 C.3     1  UNL1        0.0510
      3 C         143.4160  140.9446  160.2820 C.2     1  UNL1       -0.0044
      4 C         142.9769  142.2344  159.6546 C.2     1  UNL1        0.0689
      5 N         143.3451  143.3515  160.5854 N.2     1  UNL1       -0.2526
      6 C         144.0118  142.7522  161.7880 C.2     1  UNL1        0.0627
      7 C         144.5846  143.3689  163.0296 C.3     1  UNL1        0.0717
      8 C         145.2012  142.4979  164.0837 C.2     1  UNL1       -0.0198
      9 C         145.2450  141.0103  163.8963 C.2     1  UNL1       -0.0042
     10 C         144.6722  140.3937  162.6547 C.2     1  UNL1        0.0006
     11 C         144.0556  141.2646  161.6006 C.2     1  UNL1        0.0111
     12 C         142.2985  142.2249  158.3168 C.3     1  UNL1        0.0949
     13 N         142.0592  140.9257  157.6064 N.3     1  UNL1       -0.2887
     14 H         142.5329  140.9911  156.7054 H       1  UNL1        0.1239
     15 C         142.5350  136.0685  156.7048 C.ar    1  UNL1        0.0947
     16 C         141.2467  136.6059  156.1559 C.ar    1  UNL1        0.1187
     17 N         141.0761  138.0076  156.6618 N.ar    1  UNL1       -0.2282
     18 C         142.2590  138.3365  157.5234 C.ar    1  UNL1        0.1318
     19 N         143.1607  137.1382  157.5500 N.ar    1  UNL1       -0.3385
     20 H         144.0134  137.0663  158.0368 H       1  UNL1        0.1672
     21 F         144.7900  130.6004  155.6968 F       1  UNL1       -0.2025
     22 C         144.2262  131.9675  155.9488 C.ar    1  UNL1        0.1592
     23 C         143.4108  132.6493  154.8904 C.ar    1  UNL1        0.0328
     24 C         142.8471  134.0162  155.1424 C.ar    1  UNL1        0.0230
     25 C         143.0988  134.7014  156.4528 C.ar    1  UNL1        0.0986
     26 N         143.9142  134.0197  157.5112 N.ar    1  UNL1       -0.2400
     27 C         144.4780  132.6527  157.2592 C.ar    1  UNL1        0.1284
     28 C         141.8595  143.5147  157.6893 C.3     1  UNL1        0.0252
     29 C         142.5320  144.0097  156.4433 C.3     1  UNL1        0.0339
     30 C         142.0928  145.2996  155.8159 C.3     1  UNL1        0.1422
     31 O         140.9812  146.0943  156.4345 O.3     1  UNL1       -0.3538
     32 C         140.3087  145.5992  157.6806 C.3     1  UNL1        0.1422
     33 C         140.7478  144.3095  158.3079 C.3     1  UNL1        0.0339
@<TRIPOS>BOND
     1    21    22    1
     2    22    23   ar
     3    23    24   ar
     4    24    25   ar
     5    25    15    1
     6    15    16   ar
     7    16    17   ar
     8    17    18   ar
     9     1    18    1
    10     1     2    1
    11     2     3    1
    12     3     4    2
    13     4     5    1
    14     5     6    2
    15     6     7    1
    16     7     8    1
    17     8     9    2
    18     9    10    1
    19    10    11    2
    20     4    12    1
    21    12    28    1
    22    28    29    1
    23    29    30    1
    24    30    31    1
    25    31    32    1
    26    32    33    1
    27    12    13    1
    28    18    19   ar
    29    25    26   ar
    30    26    27   ar
    31    27    22   ar
    32    19    15   ar
    33    13     1    1
    34    11     3    1
    35    33    28    1
    36    11     6    1
    37    13    14    1
    38    19    20    1
@<TRIPOS>MOLECULE
*****
 33 38 0 0 0
SMALL
GASTEIGER

@<TRIPOS>ATOM
      1 C         141.3263  138.6262  158.3603 C.3     1  UNL1        0.1161
      2 C         142.1339  139.7793  157.8424 C.3     1  UNL1        0.0510
      3 C         143.1859  139.5492  156.7982 C.2     1  UNL1       -0.0044
      4 C         143.4302  138.1660  156.2718 C.2     1  UNL1        0.0689
      5 N         144.5268  138.2454  155.2515 N.2     1  UNL1       -0.2526
      6 C         144.9601  139.6776  155.1472 C.2     1  UNL1        0.0627
      7 C         146.0023  140.3521  154.3053 C.3     1  UNL1        0.0717
      8 C         146.2157  141.8325  154.4193 C.2     1  UNL1       -0.0198
      9 C         145.3870  142.6383  155.3753 C.2     1  UNL1       -0.0042
     10 C         144.3448  141.9637  156.2172 C.2     1  UNL1        0.0006
     11 C         144.1314  140.4834  156.1031 C.2     1  UNL1        0.0111
     12 C         142.6226  137.0129  156.7897 C.3     1  UNL1        0.0949
     13 N         141.5706  137.2430  157.8339 N.3     1  UNL1       -0.2887
     14 H         141.8191  136.6627  158.6351 H       1  UNL1        0.1239
     15 C         139.1430  139.0125  161.5461 C.ar    1  UNL1        0.0947
     16 C         138.1682  139.4084  160.4770 C.ar    1  UNL1        0.1187
     17 N         138.8674  139.3118  159.1534 N.ar    1  UNL1       -0.2282
     18 C         140.2743  138.8563  159.4046 C.ar    1  UNL1        0.1318
     19 N         140.4447  138.6713  160.8833 N.ar    1  UNL1       -0.3385
     20 H         141.2665  138.3775  161.3389 H       1  UNL1        0.1672
     21 F         138.0309  138.8263  167.4393 F       1  UNL1       -0.2025
     22 C         138.3089  138.8728  165.9659 C.ar    1  UNL1        0.1592
     23 C         138.7400  137.6304  165.2444 C.ar    1  UNL1        0.0328
     24 C         139.0180  137.6770  163.7712 C.ar    1  UNL1        0.0230
     25 C         138.8650  138.9660  163.0195 C.ar    1  UNL1        0.0986
     26 N         138.4339  140.2084  163.7410 N.ar    1  UNL1       -0.2400
     27 C         138.1559  140.1618  165.2142 C.ar    1  UNL1        0.1284
     28 C         142.8669  135.6297  156.2633 C.3     1  UNL1        0.0252
     29 C         142.4877  135.2859  154.8535 C.3     1  UNL1        0.0339
     30 C         142.7320  133.9026  154.3271 C.3     1  UNL1        0.1422
     31 O         143.3556  132.8632  155.2107 O.3     1  UNL1       -0.3538
     32 C         143.7349  133.2070  156.6207 C.3     1  UNL1        0.1422
     33 C         143.4905  134.5902  157.1470 C.3     1  UNL1        0.0339
@<TRIPOS>BOND
     1    21    22    1
     2    22    23   ar
     3    23    24   ar
     4    24    25   ar
     5    25    15    1
     6    15    16   ar
     7    16    17   ar
     8    17    18   ar
     9     1    18    1
    10     1     2    1
    11     2     3    1
    12     3     4    2
    13     4     5    1
    14     5     6    2
    15     6     7    1
    16     7     8    1
    17     8     9    2
    18     9    10    1
    19    10    11    2
    20     4    12    1
    21    12    28    1
    22    28    29    1
    23    29    30    1
    24    30    31    1
    25    31    32    1
    26    32    33    1
    27    12    13    1
    28    18    19   ar
    29    25    26   ar
    30    26    27   ar
    31    27    22   ar
    32    19    15   ar
    33    13     1    1
    34    11     3    1
    35    33    28    1
    36    11     6    1
    37    13    14    1
    38    19    20    1
@<TRIPOS>MOLECULE
*****
 33 38 0 0 0
SMALL
GASTEIGER

@<TRIPOS>ATOM
      1 C         142.2706  138.6587  158.9392 C.3     1  UNL1        0.1161
      2 C         141.7518  140.0085  158.5407 C.3     1  UNL1        0.0510
      3 C         141.7011  141.1196  159.5471 C.2     1  UNL1       -0.0044
      4 C         142.1691  140.8809  160.9520 C.2     1  UNL1        0.0689
      5 N         142.0010  142.1584  161.7199 N.2     1  UNL1       -0.2526
      6 C         141.4291  143.1867  160.7896 C.2     1  UNL1        0.0627
      7 C         141.0531  144.6246  160.9917 C.3     1  UNL1        0.0717
      8 C         140.4918  145.4205  159.8510 C.2     1  UNL1       -0.0198
      9 C         140.3064  144.7785  158.5081 C.2     1  UNL1       -0.0042
     10 C         140.6823  143.3406  158.3059 C.2     1  UNL1        0.0006
     11 C         141.2437  142.5446  159.4466 C.2     1  UNL1        0.0111
     12 C         142.6879  139.5310  161.3506 C.3     1  UNL1        0.0949
     13 N         142.7387  138.4199  160.3442 N.3     1  UNL1       -0.2887
     14 H         142.1725  137.6582  160.7178 H       1  UNL1        0.1239
     15 C         142.8638  135.4541  156.8310 C.ar    1  UNL1        0.0947
     16 C         141.9352  136.2213  155.9372 C.ar    1  UNL1        0.1187
     17 N         141.5999  137.5151  156.6181 N.ar    1  UNL1       -0.2282
     18 C         142.3214  137.5475  157.9327 C.ar    1  UNL1        0.1318
     19 N         143.1025  136.2738  158.0644 N.ar    1  UNL1       -0.3385
     20 H         143.6719  136.0203  158.8265 H       1  UNL1        0.1672
     21 F         145.2116  130.0547  155.6760 F       1  UNL1       -0.2025
     22 C         144.6246  131.4046  155.9648 C.ar    1  UNL1        0.1592
     23 C         144.9450  132.1015  157.2538 C.ar    1  UNL1        0.0328
     24 C         144.3580  133.4513  157.5425 C.ar    1  UNL1        0.0230
     25 C         143.4508  134.1042  156.5422 C.ar    1  UNL1        0.0986
     26 N         143.1304  133.4073  155.2532 N.ar    1  UNL1       -0.2400
     27 C         143.7174  132.0575  154.9645 C.ar    1  UNL1        0.1284
     28 C         143.1560  139.2923  162.7555 C.3     1  UNL1        0.0252
     29 C         142.2555  138.6067  163.7398 C.3     1  UNL1        0.0339
     30 C         142.7236  138.3679  165.1448 C.3     1  UNL1        0.1422
     31 O         144.0923  138.8149  165.5654 O.3     1  UNL1       -0.3538
     32 C         144.9929  139.5006  164.5811 C.3     1  UNL1        0.1422
     33 C         144.5247  139.7393  163.1763 C.3     1  UNL1        0.0339
@<TRIPOS>BOND
     1    21    22    1
     2    22    23   ar
     3    23    24   ar
     4    24    25   ar
     5    25    15    1
     6    15    16   ar
     7    16    17   ar
     8    17    18   ar
     9     1    18    1
    10     1     2    1
    11     2     3    1
    12     3     4    2
    13     4     5    1
    14     5     6    2
    15     6     7    1
    16     7     8    1
    17     8     9    2
    18     9    10    1
    19    10    11    2
    20     4    12    1
    21    12    28    1
    22    28    29    1
    23    29    30    1
    24    30    31    1
    25    31    32    1
    26    32    33    1
    27    12    13    1
    28    18    19   ar
    29    25    26   ar
    30    26    27   ar
    31    27    22   ar
    32    19    15   ar
    33    13     1    1
    34    11     3    1
    35    33    28    1
    36    11     6    1
    37    13    14    1
    38    19    20    1
@<TRIPOS>MOLECULE
*****
 33 38 0 0 0
SMALL
GASTEIGER

@<TRIPOS>ATOM
      1 C         139.8961  138.9089  158.3716 C.3     1  UNL1        0.1161
      2 C         139.9701  140.4005  158.2318 C.3     1  UNL1        0.0510
      3 C         140.0370  141.2660  159.4551 C.2     1  UNL1       -0.0044
      4 C         140.0299  140.6398  160.8181 C.2     1  UNL1        0.0689
      5 N         140.1051  141.7406  161.8343 N.2     1  UNL1       -0.2526
      6 C         140.1587  143.0471  161.0993 C.2     1  UNL1        0.0627
      7 C         140.2404  144.4660  161.5790 C.3     1  UNL1        0.0717
      8 C         140.2800  145.5915  160.5882 C.2     1  UNL1       -0.0198
      9 C         140.2379  145.2981  159.1178 C.2     1  UNL1       -0.0042
     10 C         140.1562  143.8793  158.6381 C.2     1  UNL1        0.0006
     11 C         140.1166  142.7538  159.6288 C.2     1  UNL1        0.0111
     12 C         139.9559  139.1482  160.9579 C.3     1  UNL1        0.0949
     13 N         139.8890  138.2827  159.7346 N.3     1  UNL1       -0.2887
     14 H         139.0283  137.7398  159.8047 H       1  UNL1        0.1239
     15 C         140.3344  136.3383  155.4966 C.ar    1  UNL1        0.0947
     16 C         139.1181  137.0848  155.0349 C.ar    1  UNL1        0.1187
     17 N         138.8058  138.1387  156.0557 N.ar    1  UNL1       -0.2282
     18 C         139.8291  138.0434  157.1482 C.ar    1  UNL1        0.1318
     19 N         140.7739  136.9307  156.8027 N.ar    1  UNL1       -0.3385
     20 H         141.5467  136.6403  157.3390 H       1  UNL1        0.1672
     21 F         142.9778  131.7823  152.6233 F       1  UNL1       -0.2025
     22 C         142.3169  132.9213  153.3416 C.ar    1  UNL1        0.1592
     23 C         141.6193  133.9961  152.5618 C.ar    1  UNL1        0.0328
     24 C         140.9585  135.1350  153.2801 C.ar    1  UNL1        0.0230
     25 C         140.9953  135.1993  154.7783 C.ar    1  UNL1        0.0986
     26 N         141.6929  134.1245  155.5581 N.ar    1  UNL1       -0.2400
     27 C         142.3537  132.9856  154.8398 C.ar    1  UNL1        0.1284
     28 C         139.9488  138.5220  162.3209 C.3     1  UNL1        0.0252
     29 C         141.1167  137.6967  162.7732 C.3     1  UNL1        0.0339
     30 C         141.1095  137.0705  164.1363 C.3     1  UNL1        0.1422
     31 O         139.9344  137.2697  165.0470 O.3     1  UNL1       -0.3538
     32 C         138.7664  138.0951  164.5947 C.3     1  UNL1        0.1422
     33 C         138.7736  138.7212  163.2317 C.3     1  UNL1        0.0339
@<TRIPOS>BOND
     1    21    22    1
     2    22    23   ar
     3    23    24   ar
     4    24    25   ar
     5    25    15    1
     6    15    16   ar
     7    16    17   ar
     8    17    18   ar
     9     1    18    1
    10     1     2    1
    11     2     3    1
    12     3     4    2
    13     4     5    1
    14     5     6    2
    15     6     7    1
    16     7     8    1
    17     8     9    2
    18     9    10    1
    19    10    11    2
    20     4    12    1
    21    12    28    1
    22    28    29    1
    23    29    30    1
    24    30    31    1
    25    31    32    1
    26    32    33    1
    27    12    13    1
    28    18    19   ar
    29    25    26   ar
    30    26    27   ar
    31    27    22   ar
    32    19    15   ar
    33    13     1    1
    34    11     3    1
    35    33    28    1
    36    11     6    1
    37    13    14    1
    38    19    20    1
@<TRIPOS>MOLECULE
*****
 33 38 0 0 0
SMALL
GASTEIGER

@<TRIPOS>ATOM
      1 C         142.4414  138.4017  157.1894 C.3     1  UNL1        0.1161
      2 C         143.0551  137.0619  157.4690 C.3     1  UNL1        0.0510
      3 C         142.5632  135.8453  156.7424 C.2     1  UNL1       -0.0044
      4 C         141.4577  135.9686  155.7361 C.2     1  UNL1        0.0689
      5 N         141.1829  134.6030  155.1797 N.2     1  UNL1       -0.2526
      6 C         142.1187  133.6357  155.8421 C.2     1  UNL1        0.0627
      7 C         142.3042  132.1550  155.6905 C.3     1  UNL1        0.0717
      8 C         143.3428  131.4421  156.5048 C.2     1  UNL1       -0.0198
      9 C         144.1959  132.2099  157.4706 C.2     1  UNL1       -0.0042
     10 C         144.0104  133.6906  157.6221 C.2     1  UNL1        0.0006
     11 C         142.9718  134.4035  156.8078 C.2     1  UNL1        0.0111
     12 C         140.8440  137.3085  155.4565 C.3     1  UNL1        0.0949
     13 N         141.3358  138.5251  156.1832 N.3     1  UNL1       -0.2887
     14 H         140.5334  138.9193  156.6742 H       1  UNL1        0.1239
     15 C         143.6457  141.1198  159.6849 C.ar    1  UNL1        0.0947
     16 C         143.7348  141.8609  158.3839 C.ar    1  UNL1        0.1187
     17 N         143.2945  140.9330  157.2907 N.ar    1  UNL1       -0.2282
     18 C         142.9333  139.6184  157.9161 C.ar    1  UNL1        0.1318
     19 N         143.1503  139.7337  159.3958 N.ar    1  UNL1       -0.3385
     20 H         142.9950  139.0243  160.0605 H       1  UNL1        0.1672
     21 F         145.0280  143.3139  165.0956 F       1  UNL1       -0.2025
     22 C         144.6824  142.7654  163.7429 C.ar    1  UNL1        0.1592
     23 C         143.6604  143.4583  162.8913 C.ar    1  UNL1        0.0328
     24 C         143.3148  142.9098  161.5387 C.ar    1  UNL1        0.0230
     25 C         143.9913  141.6683  161.0376 C.ar    1  UNL1        0.0986
     26 N         145.0133  140.9753  161.8892 N.ar    1  UNL1       -0.2400
     27 C         145.3589  141.5239  163.2418 C.ar    1  UNL1        0.1284
     28 C         139.7384  137.4318  154.4503 C.3     1  UNL1        0.0252
     29 C         140.0473  137.3613  152.9842 C.3     1  UNL1        0.0339
     30 C         138.9417  137.4846  151.9780 C.3     1  UNL1        0.1422
     31 O         137.5272  137.6785  152.4379 O.3     1  UNL1       -0.3538
     32 C         137.2182  137.7490  153.9041 C.3     1  UNL1        0.1422
     33 C         138.3238  137.6257  154.9102 C.3     1  UNL1        0.0339
@<TRIPOS>BOND
     1    21    22    1
     2    22    23   ar
     3    23    24   ar
     4    24    25   ar
     5    25    15    1
     6    15    16   ar
     7    16    17   ar
     8    17    18   ar
     9     1    18    1
    10     1     2    1
    11     2     3    1
    12     3     4    2
    13     4     5    1
    14     5     6    2
    15     6     7    1
    16     7     8    1
    17     8     9    2
    18     9    10    1
    19    10    11    2
    20     4    12    1
    21    12    28    1
    22    28    29    1
    23    29    30    1
    24    30    31    1
    25    31    32    1
    26    32    33    1
    27    12    13    1
    28    18    19   ar
    29    25    26   ar
    30    26    27   ar
    31    27    22   ar
    32    19    15   ar
    33    13     1    1
    34    11     3    1
    35    33    28    1
    36    11     6    1
    37    13    14    1
    38    19    20    1
