@<TRIPOS>MOLECULE
*****
 39 44 0 0 0
SMALL
GASTEIGER

@<TRIPOS>ATOM
      1 C         140.5470  137.7078  164.3679 C.3     1  UNL1        0.0932
      2 C         141.7634  138.1867  165.1034 C.3     1  UNL1        0.0286
      3 C         143.0177  138.5110  164.3474 C.3     1  UNL1        0.0193
      4 C         143.0556  138.3564  162.8558 C.3     1  UNL1        0.0700
      5 C         141.8392  137.8775  162.1203 C.3     1  UNL1        0.0193
      6 C         140.5849  137.5532  162.8764 C.3     1  UNL1        0.0286
      7 C         142.3455  138.1664  163.2268 C.3     1  UNL1        0.1562
      8 O         141.2113  137.8732  163.9104 O.3     1  UNL1       -0.3572
      9 N         144.3099  138.6807  162.0999 N.3     1  UNL1       -0.2926
     10 H         144.4051  137.9740  161.3705 H       1  UNL1        0.1236
     11 C         144.4591  140.0153  161.4318 C.3     1  UNL1        0.1152
     12 C         143.8936  141.2451  162.0782 C.ar    1  UNL1        0.0762
     13 C         144.4888  141.7629  163.3541 C.ar    1  UNL1        0.0150
     14 C         143.9233  142.9926  164.0006 C.ar    1  UNL1        0.0162
     15 C         144.5184  143.5104  165.2764 C.3     1  UNL1        0.0343
     16 C         142.7627  143.7045  163.3713 C.ar    1  UNL1        0.1667
     17 C         142.1675  143.1868  162.0955 C.ar    1  UNL1        0.1679
     18 N         142.7330  141.9570  161.4489 N.ar    1  UNL1       -0.2305
     19 N         141.0069  143.8988  161.4661 N.am    1  UNL1       -0.2639
     20 C         140.4414  145.1285  162.1126 C.2     1  UNL1        0.2718
     21 O         139.2808  145.8405  161.4833 O.2     1  UNL1       -0.2707
     22 C         141.0365  145.6463  163.3885 C.3     1  UNL1        0.2898
     23 O         142.1972  144.9343  164.0178 O.3     1  UNL1       -0.4631
     24 H         140.6163  143.5589  160.6288 H       1  UNL1        0.1565
     25 C         139.2927  137.3836  165.1238 C.3     1  UNL1        0.0320
     26 C         138.3051  138.4679  165.4385 C.3     1  UNL1        0.0327
     27 C         140.3133  141.3797  168.2203 C.ar    1  UNL1        0.2250
     28 C         140.5758  142.7866  167.7713 C.ar    1  UNL1        0.0593
     29 C         140.1689  143.2230  166.3951 C.ar    1  UNL1        0.0254
     30 C         139.4995  142.2524  165.4678 C.ar    1  UNL1        0.0990
     31 N         139.0926  142.6887  164.0916 N.ar    1  UNL1       -0.2400
     32 C         138.4232  141.7182  163.1643 C.ar    1  UNL1        0.1281
     33 C         138.1607  140.3112  163.6133 C.ar    1  UNL1        0.1566
     34 F         137.4913  139.3406  162.6861 F       1  UNL1       -0.2028
     35 C         138.5676  139.8748  164.9895 C.ar    1  UNL1        0.0261
     36 C         139.2370  140.8455  165.9168 C.ar    1  UNL1        0.1002
     37 N         139.6439  140.4091  167.2931 N.ar    1  UNL1       -0.2104
     38 C         141.4869  139.6677  169.7829 C.3     1  UNL1        0.2542
     39 O         140.7202  140.9434  169.5966 O.3     1  UNL1       -0.4561
@<TRIPOS>BOND
     1    38    39    1
     2    39    27    1
     3    27    28   ar
     4    28    29   ar
     5    29    30   ar
     6    30    31   ar
     7    31    32   ar
     8    32    33   ar
     9    33    34    1
    10    33    35   ar
    11    35    26    1
    12    26    25    1
    13    25     1    1
    14     1     2    1
    15     2     3    1
    16     3     4    1
    17     4     9    1
    18     9    11    1
    19    11    12    1
    20    12    13   ar
    21    13    14   ar
    22    14    15    1
    23    14    16   ar
    24    16    17   ar
    25    17    18   ar
    26    17    19    1
    27    19    20   am
    28    20    21    2
    29    20    22    1
    30    22    23    1
    31     4     5    1
    32     5     6    1
    33     4     7    1
    34     7     8    1
    35    35    36   ar
    36    36    37   ar
    37    37    27   ar
    38    36    30   ar
    39     6     1    1
    40     8     1    1
    41    18    12   ar
    42    23    16    1
    43     9    10    1
    44    19    24    1
@<TRIPOS>MOLECULE
*****
 39 44 0 0 0
SMALL
GASTEIGER

@<TRIPOS>ATOM
      1 C         137.7897  143.0273  163.5444 C.3     1  UNL1        0.0932
      2 C         137.9977  143.3361  162.0913 C.3     1  UNL1        0.0286
      3 C         138.0817  142.2205  161.0921 C.3     1  UNL1        0.0193
      4 C         137.9578  140.7962  161.5460 C.3     1  UNL1        0.0700
      5 C         137.7498  140.4874  162.9990 C.3     1  UNL1        0.0193
      6 C         137.6658  141.6031  163.9983 C.3     1  UNL1        0.0286
      7 C         137.9053  141.3737  162.1305 C.3     1  UNL1        0.1562
      8 O         137.8293  142.3824  163.0340 O.3     1  UNL1       -0.3572
      9 N         138.0418  139.6806  160.5468 N.3     1  UNL1       -0.2926
     10 H         137.6221  140.0262  159.6837 H       1  UNL1        0.1236
     11 C         139.3760  139.1027  160.1783 C.3     1  UNL1        0.1152
     12 C         140.4630  139.0093  161.2076 C.ar    1  UNL1        0.0762
     13 C         140.3734  137.9879  162.3026 C.ar    1  UNL1        0.0150
     14 C         141.4604  137.8945  163.3319 C.ar    1  UNL1        0.0162
     15 C         141.3708  136.8731  164.4268 C.3     1  UNL1        0.0343
     16 C         142.6371  138.8226  163.2664 C.ar    1  UNL1        0.1667
     17 C         142.7267  139.8439  162.1716 C.ar    1  UNL1        0.1679
     18 N         141.6397  139.9373  161.1422 N.ar    1  UNL1       -0.2305
     19 N         143.9034  140.7719  162.1061 N.am    1  UNL1       -0.2639
     20 C         144.9904  140.6786  163.1355 C.2     1  UNL1        0.2718
     21 O         146.1670  141.6066  163.0700 O.2     1  UNL1       -0.2707
     22 C         144.9008  139.6572  164.2304 C.3     1  UNL1        0.2898
     23 O         143.7241  138.7292  164.2959 O.3     1  UNL1       -0.4631
     24 H         143.9622  141.4423  161.3875 H       1  UNL1        0.1565
     25 C         137.7057  144.1429  164.5436 C.3     1  UNL1        0.0320
     26 C         138.9285  144.9456  164.8761 C.3     1  UNL1        0.0327
     27 C         140.8627  141.8706  167.5319 C.ar    1  UNL1        0.2250
     28 C         142.2239  141.3383  167.1948 C.ar    1  UNL1        0.0593
     29 C         142.9404  141.8309  165.9726 C.ar    1  UNL1        0.0254
     30 C         142.2957  142.8559  165.0873 C.ar    1  UNL1        0.0990
     31 N         143.0122  143.3485  163.8650 N.ar    1  UNL1       -0.2400
     32 C         142.3675  144.3735  162.9798 C.ar    1  UNL1        0.1281
     33 C         141.0062  144.9059  163.3168 C.ar    1  UNL1        0.1566
     34 F         140.3615  145.9309  162.4316 F       1  UNL1       -0.2028
     35 C         140.2897  144.4133  164.5391 C.ar    1  UNL1        0.0261
     36 C         140.9345  143.3882  165.4243 C.ar    1  UNL1        0.1002
     37 N         140.2180  142.8956  166.6466 N.ar    1  UNL1       -0.2104
     38 C         139.4351  140.0577  168.7255 C.3     1  UNL1        0.2542
     39 O         140.1462  141.3780  168.7541 O.3     1  UNL1       -0.4561
@<TRIPOS>BOND
     1    38    39    1
     2    39    27    1
     3    27    28   ar
     4    28    29   ar
     5    29    30   ar
     6    30    31   ar
     7    31    32   ar
     8    32    33   ar
     9    33    34    1
    10    33    35   ar
    11    35    26    1
    12    26    25    1
    13    25     1    1
    14     1     2    1
    15     2     3    1
    16     3     4    1
    17     4     9    1
    18     9    11    1
    19    11    12    1
    20    12    13   ar
    21    13    14   ar
    22    14    15    1
    23    14    16   ar
    24    16    17   ar
    25    17    18   ar
    26    17    19    1
    27    19    20   am
    28    20    21    2
    29    20    22    1
    30    22    23    1
    31     4     5    1
    32     5     6    1
    33     4     7    1
    34     7     8    1
    35    35    36   ar
    36    36    37   ar
    37    37    27   ar
    38    36    30   ar
    39     6     1    1
    40     8     1    1
    41    18    12   ar
    42    23    16    1
    43     9    10    1
    44    19    24    1
@<TRIPOS>MOLECULE
*****
 39 44 0 0 0
SMALL
GASTEIGER

@<TRIPOS>ATOM
      1 C         141.1099  144.7562  162.9383 C.3     1  UNL1        0.0932
      2 C         142.1893  144.8616  163.9745 C.3     1  UNL1        0.0286
      3 C         143.5498  144.2923  163.7009 C.3     1  UNL1        0.0193
      4 C         143.8310  143.6176  162.3910 C.3     1  UNL1        0.0700
      5 C         142.7515  143.5122  161.3548 C.3     1  UNL1        0.0193
      6 C         141.3910  144.0816  161.6284 C.3     1  UNL1        0.0286
      7 C         143.0701  143.9144  162.4954 C.3     1  UNL1        0.1562
      8 O         141.8398  144.4291  162.7428 O.3     1  UNL1       -0.3572
      9 N         145.1915  143.0483  162.1174 N.3     1  UNL1       -0.2926
     10 H         145.8691  143.7573  162.3977 H       1  UNL1        0.1236
     11 C         145.6125  141.7649  162.7697 C.3     1  UNL1        0.1152
     12 C         144.5821  140.7429  163.1487 C.ar    1  UNL1        0.0762
     13 C         144.6499  140.0704  164.4879 C.ar    1  UNL1        0.0150
     14 C         143.6195  139.0484  164.8669 C.ar    1  UNL1        0.0162
     15 C         143.6873  138.3758  166.2060 C.3     1  UNL1        0.0343
     16 C         142.5212  138.6989  163.9069 C.ar    1  UNL1        0.1667
     17 C         142.4533  139.3714  162.5678 C.ar    1  UNL1        0.1679
     18 N         143.4838  140.3934  162.1887 N.ar    1  UNL1       -0.2305
     19 N         141.3550  139.0219  161.6078 N.am    1  UNL1       -0.2639
     20 C         140.3246  137.9999  161.9868 C.2     1  UNL1        0.2718
     21 O         139.2263  137.6504  161.0268 O.2     1  UNL1       -0.2707
     22 C         140.3924  137.3274  163.3259 C.3     1  UNL1        0.2898
     23 O         141.4907  137.6769  164.2860 O.3     1  UNL1       -0.4631
     24 H         141.3105  139.4633  160.7289 H       1  UNL1        0.1565
     25 C         139.7494  145.3255  163.2119 C.3     1  UNL1        0.0320
     26 C         138.8387  144.6525  164.1957 C.3     1  UNL1        0.0327
     27 C         140.5867  142.2461  167.5726 C.ar    1  UNL1        0.2250
     28 C         140.4573  140.7517  167.5741 C.ar    1  UNL1        0.0593
     29 C         139.7452  140.0595  166.4499 C.ar    1  UNL1        0.0254
     30 C         139.1626  140.8616  165.3243 C.ar    1  UNL1        0.0990
     31 N         138.4505  140.1693  164.2001 N.ar    1  UNL1       -0.2400
     32 C         137.8678  140.9714  163.0745 C.ar    1  UNL1        0.1281
     33 C         137.9972  142.4659  163.0730 C.ar    1  UNL1        0.1566
     34 F         137.4146  143.2680  161.9474 F       1  UNL1       -0.2028
     35 C         138.7093  143.1582  164.1972 C.ar    1  UNL1        0.0261
     36 C         139.2920  142.3559  165.3228 C.ar    1  UNL1        0.1002
     37 N         140.0041  143.0482  166.4470 N.ar    1  UNL1       -0.2104
     38 C         140.5379  143.3640  169.9174 C.3     1  UNL1        0.2542
     39 O         141.2988  142.9383  168.6968 O.3     1  UNL1       -0.4561
@<TRIPOS>BOND
     1    38    39    1
     2    39    27    1
     3    27    28   ar
     4    28    29   ar
     5    29    30   ar
     6    30    31   ar
     7    31    32   ar
     8    32    33   ar
     9    33    34    1
    10    33    35   ar
    11    35    26    1
    12    26    25    1
    13    25     1    1
    14     1     2    1
    15     2     3    1
    16     3     4    1
    17     4     9    1
    18     9    11    1
    19    11    12    1
    20    12    13   ar
    21    13    14   ar
    22    14    15    1
    23    14    16   ar
    24    16    17   ar
    25    17    18   ar
    26    17    19    1
    27    19    20   am
    28    20    21    2
    29    20    22    1
    30    22    23    1
    31     4     5    1
    32     5     6    1
    33     4     7    1
    34     7     8    1
    35    35    36   ar
    36    36    37   ar
    37    37    27   ar
    38    36    30   ar
    39     6     1    1
    40     8     1    1
    41    18    12   ar
    42    23    16    1
    43     9    10    1
    44    19    24    1
@<TRIPOS>MOLECULE
*****
 39 44 0 0 0
SMALL
GASTEIGER

@<TRIPOS>ATOM
      1 C         142.8685  144.4459  163.2861 C.3     1  UNL1        0.0932
      2 C         142.9361  143.7478  161.9601 C.3     1  UNL1        0.0286
      3 C         141.6841  143.5262  161.1645 C.3     1  UNL1        0.0193
      4 C         140.3642  144.0028  161.6947 C.3     1  UNL1        0.0700
      5 C         140.2966  144.7009  163.0207 C.3     1  UNL1        0.0193
      6 C         141.5488  144.9224  163.8163 C.3     1  UNL1        0.0286
      7 C         141.0233  144.1470  162.1667 C.3     1  UNL1        0.1562
      8 O         142.1555  144.3473  162.8862 O.3     1  UNL1       -0.3572
      9 N         139.1122  143.7812  160.8991 N.3     1  UNL1       -0.2926
     10 H         139.3868  143.2892  160.0488 H       1  UNL1        0.1236
     11 C         137.9709  143.0117  161.4953 C.3     1  UNL1        0.1152
     12 C         138.2200  141.6813  162.1418 C.ar    1  UNL1        0.0762
     13 C         138.8146  140.5591  161.3436 C.ar    1  UNL1        0.0150
     14 C         139.0637  139.2287  161.9902 C.ar    1  UNL1        0.0162
     15 C         139.6583  138.1064  161.1920 C.3     1  UNL1        0.0343
     16 C         138.7182  139.0205  163.4350 C.ar    1  UNL1        0.1667
     17 C         138.1236  140.1427  164.2331 C.ar    1  UNL1        0.1679
     18 N         137.8745  141.4732  163.5866 N.ar    1  UNL1       -0.2305
     19 N         137.7781  139.9345  165.6779 N.am    1  UNL1       -0.2639
     20 C         138.0272  138.6042  166.3244 C.2     1  UNL1        0.2718
     21 O         137.6816  138.3960  167.7692 O.2     1  UNL1       -0.2707
     22 C         138.6218  137.4819  165.5263 C.3     1  UNL1        0.2898
     23 O         138.9673  137.6901  164.0815 O.3     1  UNL1       -0.4631
     24 H         137.3878  140.6711  166.2017 H       1  UNL1        0.1565
     25 C         144.1206  144.6674  164.0817 C.3     1  UNL1        0.0320
     26 C         144.4763  143.7296  165.1971 C.3     1  UNL1        0.0327
     27 C         141.1711  141.8532  167.6064 C.ar    1  UNL1        0.2250
     28 C         140.8854  140.3867  167.4731 C.ar    1  UNL1        0.0593
     29 C         141.7014  139.5457  166.5367 C.ar    1  UNL1        0.0254
     30 C         142.8031  140.1711  165.7336 C.ar    1  UNL1        0.0990
     31 N         143.6191  139.3301  164.7972 N.ar    1  UNL1       -0.2400
     32 C         144.7208  139.9556  163.9941 C.ar    1  UNL1        0.1281
     33 C         145.0066  141.4221  164.1274 C.ar    1  UNL1        0.1566
     34 F         146.1083  142.0475  163.3243 F       1  UNL1       -0.2028
     35 C         144.1906  142.2631  165.0638 C.ar    1  UNL1        0.0261
     36 C         143.0888  141.6376  165.8669 C.ar    1  UNL1        0.1002
     37 N         142.2728  142.4786  166.8033 N.ar    1  UNL1       -0.2104
     38 C         140.2097  142.2905  169.9801 C.3     1  UNL1        0.2542
     39 O         140.3551  142.6942  168.5428 O.3     1  UNL1       -0.4561
@<TRIPOS>BOND
     1    38    39    1
     2    39    27    1
     3    27    28   ar
     4    28    29   ar
     5    29    30   ar
     6    30    31   ar
     7    31    32   ar
     8    32    33   ar
     9    33    34    1
    10    33    35   ar
    11    35    26    1
    12    26    25    1
    13    25     1    1
    14     1     2    1
    15     2     3    1
    16     3     4    1
    17     4     9    1
    18     9    11    1
    19    11    12    1
    20    12    13   ar
    21    13    14   ar
    22    14    15    1
    23    14    16   ar
    24    16    17   ar
    25    17    18   ar
    26    17    19    1
    27    19    20   am
    28    20    21    2
    29    20    22    1
    30    22    23    1
    31     4     5    1
    32     5     6    1
    33     4     7    1
    34     7     8    1
    35    35    36   ar
    36    36    37   ar
    37    37    27   ar
    38    36    30   ar
    39     6     1    1
    40     8     1    1
    41    18    12   ar
    42    23    16    1
    43     9    10    1
    44    19    24    1
@<TRIPOS>MOLECULE
*****
 39 44 0 0 0
SMALL
GASTEIGER

@<TRIPOS>ATOM
      1 C         137.9699  142.5723  163.9093 C.3     1  UNL1        0.0932
      2 C         137.8601  142.5186  162.4143 C.3     1  UNL1        0.0286
      3 C         137.8034  141.1935  161.7136 C.3     1  UNL1        0.0193
      4 C         137.8564  139.9221  162.5079 C.3     1  UNL1        0.0700
      5 C         137.9661  139.9759  164.0030 C.3     1  UNL1        0.0193
      6 C         138.0229  141.3010  164.7037 C.3     1  UNL1        0.0286
      7 C         137.8906  140.6245  162.9363 C.3     1  UNL1        0.1562
      8 O         137.9419  141.8226  163.5699 O.3     1  UNL1       -0.3572
      9 N         137.7996  138.5971  161.8073 N.3     1  UNL1       -0.2926
     10 H         137.0889  138.6787  161.0801 H       1  UNL1        0.1236
     11 C         139.0290  138.0426  161.1508 C.3     1  UNL1        0.1152
     12 C         140.3831  138.3341  161.7266 C.ar    1  UNL1        0.0762
     13 C         141.4677  138.8867  160.8501 C.ar    1  UNL1        0.0150
     14 C         142.8217  139.1782  161.4259 C.ar    1  UNL1        0.0162
     15 C         143.9064  139.7308  160.5493 C.3     1  UNL1        0.0343
     16 C         143.0912  138.9172  162.8782 C.ar    1  UNL1        0.1667
     17 C         142.0066  138.3647  163.7547 C.ar    1  UNL1        0.1679
     18 N         140.6525  138.0731  163.1789 N.ar    1  UNL1       -0.2305
     19 N         142.2761  138.1036  165.2070 N.am    1  UNL1       -0.2639
     20 C         143.6301  138.3952  165.7829 C.2     1  UNL1        0.2718
     21 O         143.8995  138.1341  167.2352 O.2     1  UNL1       -0.2707
     22 C         144.7147  138.9478  164.9063 C.3     1  UNL1        0.2898
     23 O         144.4453  139.2088  163.4540 O.3     1  UNL1       -0.4631
     24 H         141.5642  137.7410  165.7823 H       1  UNL1        0.1565
     25 C         138.0266  143.8973  164.6100 C.3     1  UNL1        0.0320
     26 C         139.3521  144.5414  164.8903 C.3     1  UNL1        0.0327
     27 C         142.1502  144.2454  161.3785 C.ar    1  UNL1        0.2250
     28 C         143.3878  143.4035  161.4745 C.ar    1  UNL1        0.0593
     29 C         143.6928  142.6601  162.7412 C.ar    1  UNL1        0.0254
     30 C         142.7601  142.7588  163.9118 C.ar    1  UNL1        0.0990
     31 N         143.0651  142.0155  165.1785 N.ar    1  UNL1       -0.2400
     32 C         142.1324  142.1141  166.3491 C.ar    1  UNL1        0.1281
     33 C         140.8947  142.9561  166.2530 C.ar    1  UNL1        0.1566
     34 F         139.9620  143.0548  167.4236 F       1  UNL1       -0.2028
     35 C         140.5897  143.6994  164.9864 C.ar    1  UNL1        0.0261
     36 C         141.5225  143.6008  163.8157 C.ar    1  UNL1        0.1002
     37 N         141.2175  144.3441  162.5491 N.ar    1  UNL1       -0.2104
     38 C         140.4263  145.3314  159.7663 C.3     1  UNL1        0.2542
     39 O         141.8452  144.9888  160.1118 O.3     1  UNL1       -0.4561
@<TRIPOS>BOND
     1    38    39    1
     2    39    27    1
     3    27    28   ar
     4    28    29   ar
     5    29    30   ar
     6    30    31   ar
     7    31    32   ar
     8    32    33   ar
     9    33    34    1
    10    33    35   ar
    11    35    26    1
    12    26    25    1
    13    25     1    1
    14     1     2    1
    15     2     3    1
    16     3     4    1
    17     4     9    1
    18     9    11    1
    19    11    12    1
    20    12    13   ar
    21    13    14   ar
    22    14    15    1
    23    14    16   ar
    24    16    17   ar
    25    17    18   ar
    26    17    19    1
    27    19    20   am
    28    20    21    2
    29    20    22    1
    30    22    23    1
    31     4     5    1
    32     5     6    1
    33     4     7    1
    34     7     8    1
    35    35    36   ar
    36    36    37   ar
    37    37    27   ar
    38    36    30   ar
    39     6     1    1
    40     8     1    1
    41    18    12   ar
    42    23    16    1
    43     9    10    1
    44    19    24    1
@<TRIPOS>MOLECULE
*****
 39 44 0 0 0
SMALL
GASTEIGER

@<TRIPOS>ATOM
      1 C         141.6604  137.9244  164.3685 C.3     1  UNL1        0.0932
      2 C         142.1976  138.1446  162.9854 C.3     1  UNL1        0.0286
      3 C         143.4991  138.8648  162.7922 C.3     1  UNL1        0.0193
      4 C         144.2634  139.3649  163.9822 C.3     1  UNL1        0.0700
      5 C         143.7262  139.1447  165.3652 C.3     1  UNL1        0.0193
      6 C         142.4246  138.4244  165.5583 C.3     1  UNL1        0.0286
      7 C         143.5548  138.9757  164.1379 C.3     1  UNL1        0.1562
      8 O         142.3779  138.3245  164.3126 O.3     1  UNL1       -0.3572
      9 N         145.5649  140.0851  163.7890 N.3     1  UNL1       -0.2926
     10 H         145.8988  139.8446  162.8557 H       1  UNL1        0.1236
     11 C         145.6177  141.5804  163.8958 C.3     1  UNL1        0.1152
     12 C         144.6586  142.4229  163.1083 C.ar    1  UNL1        0.0762
     13 C         143.8383  143.4711  163.8001 C.ar    1  UNL1        0.0150
     14 C         142.8792  144.3136  163.0125 C.ar    1  UNL1        0.0162
     15 C         142.0590  145.3618  163.7044 C.3     1  UNL1        0.0343
     16 C         142.7403  144.1079  161.5332 C.ar    1  UNL1        0.1667
     17 C         143.5605  143.0598  160.8414 C.ar    1  UNL1        0.1679
     18 N         144.5197  142.2172  161.6289 N.ar    1  UNL1       -0.2305
     19 N         143.4215  142.8541  159.3621 N.am    1  UNL1       -0.2639
     20 C         142.4624  143.6966  158.5746 C.2     1  UNL1        0.2718
     21 O         142.3235  143.4910  157.0952 O.2     1  UNL1       -0.2707
     22 C         141.6421  144.7448  159.2664 C.3     1  UNL1        0.2898
     23 O         141.7811  144.9505  160.7457 O.3     1  UNL1       -0.4631
     24 H         143.9599  142.1662  158.9080 H       1  UNL1        0.1565
     25 C         140.3589  137.2042  164.5616 C.3     1  UNL1        0.0320
     26 C         139.1045  137.9813  164.8315 C.3     1  UNL1        0.0327
     27 C         139.9982  142.0853  166.4464 C.ar    1  UNL1        0.2250
     28 C         139.6774  143.3000  165.6268 C.ar    1  UNL1        0.0593
     29 C         139.0588  143.1466  164.2690 C.ar    1  UNL1        0.0254
     30 C         138.7609  141.7786  163.7307 C.ar    1  UNL1        0.0990
     31 N         138.1422  141.6253  162.3728 N.ar    1  UNL1       -0.2400
     32 C         137.8443  140.2573  161.8346 C.ar    1  UNL1        0.1281
     33 C         138.1651  139.0426  162.6541 C.ar    1  UNL1        0.1566
     34 F         137.8672  137.6746  162.1158 F       1  UNL1       -0.2028
     35 C         138.7837  139.1959  164.0120 C.ar    1  UNL1        0.0261
     36 C         139.0816  140.5640  164.5503 C.ar    1  UNL1        0.1002
     37 N         139.7003  140.7174  165.9081 N.ar    1  UNL1       -0.2104
     38 C         140.1866  141.3453  168.9297 C.3     1  UNL1        0.2542
     39 O         140.6168  142.2387  167.8042 O.3     1  UNL1       -0.4561
@<TRIPOS>BOND
     1    38    39    1
     2    39    27    1
     3    27    28   ar
     4    28    29   ar
     5    29    30   ar
     6    30    31   ar
     7    31    32   ar
     8    32    33   ar
     9    33    34    1
    10    33    35   ar
    11    35    26    1
    12    26    25    1
    13    25     1    1
    14     1     2    1
    15     2     3    1
    16     3     4    1
    17     4     9    1
    18     9    11    1
    19    11    12    1
    20    12    13   ar
    21    13    14   ar
    22    14    15    1
    23    14    16   ar
    24    16    17   ar
    25    17    18   ar
    26    17    19    1
    27    19    20   am
    28    20    21    2
    29    20    22    1
    30    22    23    1
    31     4     5    1
    32     5     6    1
    33     4     7    1
    34     7     8    1
    35    35    36   ar
    36    36    37   ar
    37    37    27   ar
    38    36    30   ar
    39     6     1    1
    40     8     1    1
    41    18    12   ar
    42    23    16    1
    43     9    10    1
    44    19    24    1
@<TRIPOS>MOLECULE
*****
 39 44 0 0 0
SMALL
GASTEIGER

@<TRIPOS>ATOM
      1 C         139.5187  137.8151  164.4288 C.3     1  UNL1        0.0932
      2 C         140.9546  137.5475  164.7703 C.3     1  UNL1        0.0286
      3 C         141.9798  137.4528  163.6795 C.3     1  UNL1        0.0193
      4 C         141.5692  137.6257  162.2471 C.3     1  UNL1        0.0700
      5 C         140.1333  137.8933  161.9056 C.3     1  UNL1        0.0193
      6 C         139.1081  137.9880  162.9965 C.3     1  UNL1        0.0286
      7 C         140.9717  137.6861  162.8103 C.3     1  UNL1        0.1562
      8 O         140.0446  137.7718  163.7966 O.3     1  UNL1       -0.3572
      9 N         142.5945  137.5310  161.1563 N.3     1  UNL1       -0.2926
     10 H         142.0936  137.6238  160.2726 H       1  UNL1        0.1236
     11 C         143.7347  138.5046  161.1122 C.3     1  UNL1        0.1152
     12 C         143.5306  139.9197  161.5656 C.ar    1  UNL1        0.0762
     13 C         142.6049  140.8242  160.8072 C.ar    1  UNL1        0.0150
     14 C         142.4007  142.2393  161.2606 C.ar    1  UNL1        0.0162
     15 C         141.4750  143.1438  160.5022 C.3     1  UNL1        0.0343
     16 C         143.1222  142.7501  162.4724 C.ar    1  UNL1        0.1667
     17 C         144.0479  141.8457  163.2308 C.ar    1  UNL1        0.1679
     18 N         144.2521  140.4305  162.7774 N.ar    1  UNL1       -0.2305
     19 N         144.7694  142.3565  164.4426 N.am    1  UNL1       -0.2639
     20 C         144.5653  143.7716  164.8961 C.2     1  UNL1        0.2718
     21 O         145.2868  144.2824  166.1079 O.2     1  UNL1       -0.2707
     22 C         143.6396  144.6761  164.1377 C.3     1  UNL1        0.2898
     23 O         142.9181  144.1653  162.9258 O.3     1  UNL1       -0.4631
     24 H         145.3770  141.7629  164.9404 H       1  UNL1        0.1565
     25 C         138.4935  137.9098  165.5196 C.3     1  UNL1        0.0320
     26 C         138.1231  139.2482  166.0866 C.3     1  UNL1        0.0327
     27 C         141.8346  140.1942  168.4489 C.ar    1  UNL1        0.2250
     28 C         142.6518  141.4051  168.1086 C.ar    1  UNL1        0.0593
     29 C         142.2319  142.3006  166.9809 C.ar    1  UNL1        0.0254
     30 C         140.9948  141.9853  166.1935 C.ar    1  UNL1        0.0990
     31 N         140.5750  142.8809  165.0658 N.ar    1  UNL1       -0.2400
     32 C         139.3378  142.5656  164.2784 C.ar    1  UNL1        0.1281
     33 C         138.5205  141.3547  164.6187 C.ar    1  UNL1        0.1566
     34 F         137.2834  141.0394  163.8313 F       1  UNL1       -0.2028
     35 C         138.9404  140.4591  165.7464 C.ar    1  UNL1        0.0261
     36 C         140.1776  140.7745  166.5338 C.ar    1  UNL1        0.1002
     37 N         140.5974  139.8789  167.6615 N.ar    1  UNL1       -0.2104
     38 C         142.9080  139.8820  170.7941 C.3     1  UNL1        0.2542
     39 O         142.2544  139.2986  169.5766 O.3     1  UNL1       -0.4561
@<TRIPOS>BOND
     1    38    39    1
     2    39    27    1
     3    27    28   ar
     4    28    29   ar
     5    29    30   ar
     6    30    31   ar
     7    31    32   ar
     8    32    33   ar
     9    33    34    1
    10    33    35   ar
    11    35    26    1
    12    26    25    1
    13    25     1    1
    14     1     2    1
    15     2     3    1
    16     3     4    1
    17     4     9    1
    18     9    11    1
    19    11    12    1
    20    12    13   ar
    21    13    14   ar
    22    14    15    1
    23    14    16   ar
    24    16    17   ar
    25    17    18   ar
    26    17    19    1
    27    19    20   am
    28    20    21    2
    29    20    22    1
    30    22    23    1
    31     4     5    1
    32     5     6    1
    33     4     7    1
    34     7     8    1
    35    35    36   ar
    36    36    37   ar
    37    37    27   ar
    38    36    30   ar
    39     6     1    1
    40     8     1    1
    41    18    12   ar
    42    23    16    1
    43     9    10    1
    44    19    24    1
@<TRIPOS>MOLECULE
*****
 39 44 0 0 0
SMALL
GASTEIGER

@<TRIPOS>ATOM
      1 C         137.9736  140.0102  161.7630 C.3     1  UNL1        0.0932
      2 C         138.5149  140.9323  160.7110 C.3     1  UNL1        0.0286
      3 C         138.4590  142.4173  160.9145 C.3     1  UNL1        0.0193
      4 C         137.8619  142.9804  162.1702 C.3     1  UNL1        0.0700
      5 C         137.3207  142.0582  163.2222 C.3     1  UNL1        0.0193
      6 C         137.3765  140.5731  163.0186 C.3     1  UNL1        0.0286
      7 C         137.8704  142.1597  162.1035 C.3     1  UNL1        0.1562
      8 O         137.9209  140.8169  161.9194 O.3     1  UNL1       -0.3572
      9 N         137.8061  144.4654  162.3738 N.3     1  UNL1       -0.2926
     10 H         136.9576  144.6579  162.9061 H       1  UNL1        0.1236
     11 C         138.9282  145.1686  163.0783 C.3     1  UNL1        0.1152
     12 C         140.0348  144.3738  163.7057 C.ar    1  UNL1        0.0762
     13 C         139.8990  143.8831  165.1167 C.ar    1  UNL1        0.0150
     14 C         141.0057  143.0884  165.7442 C.ar    1  UNL1        0.0162
     15 C         140.8699  142.5977  167.1552 C.3     1  UNL1        0.0343
     16 C         142.2481  142.7843  164.9607 C.ar    1  UNL1        0.1667
     17 C         142.3840  143.2750  163.5498 C.ar    1  UNL1        0.1679
     18 N         141.2773  144.0698  162.9222 N.ar    1  UNL1       -0.2305
     19 N         143.6264  142.9709  162.7663 N.am    1  UNL1       -0.2639
     20 C         144.7330  142.1762  163.3937 C.2     1  UNL1        0.2718
     21 O         145.9755  141.8721  162.6102 O.2     1  UNL1       -0.2707
     22 C         144.5972  141.6855  164.8047 C.3     1  UNL1        0.2898
     23 O         143.3548  141.9895  165.5882 O.3     1  UNL1       -0.4631
     24 H         143.7156  143.2930  161.8402 H       1  UNL1        0.1565
     25 C         138.0294  138.5251  161.5595 C.3     1  UNL1        0.0320
     26 C         138.6310  137.6455  162.6151 C.3     1  UNL1        0.0327
     27 C         142.6606  137.7496  160.6148 C.ar    1  UNL1        0.2250
     28 C         143.8656  138.2120  161.3791 C.ar    1  UNL1        0.0593
     29 C         143.7274  138.6396  162.8102 C.ar    1  UNL1        0.0254
     30 C         142.3842  138.6049  163.4770 C.ar    1  UNL1        0.0990
     31 N         142.2460  139.0326  164.9081 N.ar    1  UNL1       -0.2400
     32 C         140.9029  138.9978  165.5749 C.ar    1  UNL1        0.1281
     33 C         139.6978  138.5355  164.8105 C.ar    1  UNL1        0.1566
     34 F         138.3546  138.5008  165.4773 F       1  UNL1       -0.2028
     35 C         139.8360  138.1078  163.3794 C.ar    1  UNL1        0.0261
     36 C         141.1792  138.1426  162.7127 C.ar    1  UNL1        0.1002
     37 N         141.3174  137.7149  161.2816 N.ar    1  UNL1       -0.2104
     38 C         142.7135  138.3398  158.0852 C.3     1  UNL1        0.2542
     39 O         142.7988  137.3220  159.1837 O.3     1  UNL1       -0.4561
@<TRIPOS>BOND
     1    38    39    1
     2    39    27    1
     3    27    28   ar
     4    28    29   ar
     5    29    30   ar
     6    30    31   ar
     7    31    32   ar
     8    32    33   ar
     9    33    34    1
    10    33    35   ar
    11    35    26    1
    12    26    25    1
    13    25     1    1
    14     1     2    1
    15     2     3    1
    16     3     4    1
    17     4     9    1
    18     9    11    1
    19    11    12    1
    20    12    13   ar
    21    13    14   ar
    22    14    15    1
    23    14    16   ar
    24    16    17   ar
    25    17    18   ar
    26    17    19    1
    27    19    20   am
    28    20    21    2
    29    20    22    1
    30    22    23    1
    31     4     5    1
    32     5     6    1
    33     4     7    1
    34     7     8    1
    35    35    36   ar
    36    36    37   ar
    37    37    27   ar
    38    36    30   ar
    39     6     1    1
    40     8     1    1
    41    18    12   ar
    42    23    16    1
    43     9    10    1
    44    19    24    1
@<TRIPOS>MOLECULE
*****
 39 44 0 0 0
SMALL
GASTEIGER

@<TRIPOS>ATOM
      1 C         138.4298  139.6596  164.0920 C.3     1  UNL1        0.0932
      2 C         138.2862  139.8958  162.6177 C.3     1  UNL1        0.0286
      3 C         137.9999  141.2755  162.1035 C.3     1  UNL1        0.0193
      4 C         137.8570  142.4191  163.0637 C.3     1  UNL1        0.0700
      5 C         138.0006  142.1829  164.5380 C.3     1  UNL1        0.0193
      6 C         138.2870  140.8031  165.0521 C.3     1  UNL1        0.0286
      7 C         138.0140  141.6808  163.3926 C.3     1  UNL1        0.1562
      8 O         138.2729  140.4332  163.8576 O.3     1  UNL1       -0.3572
      9 N         137.5707  143.7988  162.5495 N.3     1  UNL1       -0.2926
     10 H         136.7610  144.1431  163.0655 H       1  UNL1        0.1236
     11 C         138.6232  144.8642  162.6341 C.3     1  UNL1        0.1152
     12 C         140.0675  144.5087  162.4403 C.ar    1  UNL1        0.0762
     13 C         141.1015  145.0236  163.3972 C.ar    1  UNL1        0.0150
     14 C         142.5458  144.6681  163.2035 C.ar    1  UNL1        0.0162
     15 C         143.5799  145.1830  164.1604 C.3     1  UNL1        0.0343
     16 C         142.9561  143.7977  162.0528 C.ar    1  UNL1        0.1667
     17 C         141.9222  143.2828  161.0959 C.ar    1  UNL1        0.1679
     18 N         140.4778  143.6382  161.2896 N.ar    1  UNL1       -0.2305
     19 N         142.3325  142.4123  159.9452 N.am    1  UNL1       -0.2639
     20 C         143.7768  142.0568  159.7515 C.2     1  UNL1        0.2718
     21 O         144.1871  141.1864  158.6008 O.2     1  UNL1       -0.2707
     22 C         144.8108  142.5718  160.7084 C.3     1  UNL1        0.2898
     23 O         144.4005  143.4422  161.8591 O.3     1  UNL1       -0.4631
     24 H         141.6538  142.0744  159.3172 H       1  UNL1        0.1565
     25 C         138.7162  138.2799  164.6062 C.3     1  UNL1        0.0320
     26 C         140.1344  137.8311  164.7999 C.3     1  UNL1        0.0327
     27 C         141.9047  141.0571  167.3900 C.ar    1  UNL1        0.2250
     28 C         143.0347  141.8977  166.8737 C.ar    1  UNL1        0.0593
     29 C         143.5745  141.6630  165.4940 C.ar    1  UNL1        0.0254
     30 C         142.9844  140.5877  164.6307 C.ar    1  UNL1        0.0990
     31 N         143.5242  140.3530  163.2510 N.ar    1  UNL1       -0.2400
     32 C         142.9341  139.2777  162.3876 C.ar    1  UNL1        0.1281
     33 C         141.8041  138.4370  162.9039 C.ar    1  UNL1        0.1566
     34 F         141.2140  137.3617  162.0406 F       1  UNL1       -0.2028
     35 C         141.2643  138.6717  164.2836 C.ar    1  UNL1        0.0261
     36 C         141.8545  139.7471  165.1470 C.ar    1  UNL1        0.1002
     37 N         141.3146  139.9818  166.5267 N.ar    1  UNL1       -0.2104
     38 C         141.1100  140.1297  169.6831 C.3     1  UNL1        0.2542
     39 O         141.3649  141.2918  168.7697 O.3     1  UNL1       -0.4561
@<TRIPOS>BOND
     1    38    39    1
     2    39    27    1
     3    27    28   ar
     4    28    29   ar
     5    29    30   ar
     6    30    31   ar
     7    31    32   ar
     8    32    33   ar
     9    33    34    1
    10    33    35   ar
    11    35    26    1
    12    26    25    1
    13    25     1    1
    14     1     2    1
    15     2     3    1
    16     3     4    1
    17     4     9    1
    18     9    11    1
    19    11    12    1
    20    12    13   ar
    21    13    14   ar
    22    14    15    1
    23    14    16   ar
    24    16    17   ar
    25    17    18   ar
    26    17    19    1
    27    19    20   am
    28    20    21    2
    29    20    22    1
    30    22    23    1
    31     4     5    1
    32     5     6    1
    33     4     7    1
    34     7     8    1
    35    35    36   ar
    36    36    37   ar
    37    37    27   ar
    38    36    30   ar
    39     6     1    1
    40     8     1    1
    41    18    12   ar
    42    23    16    1
    43     9    10    1
    44    19    24    1
