@<TRIPOS>MOLECULE
*****
 27 30 0 0 0
SMALL
GASTEIGER

@<TRIPOS>ATOM
      1 C         141.2857  142.1432  164.9753 C.3     1  UNL1        0.0360
      2 C         140.3944  141.1533  165.6649 C.ar    1  UNL1        0.0361
      3 C         140.3079  140.9264  167.1451 C.ar    1  UNL1        0.1211
      4 N         139.2931  139.8494  167.3905 N.ar    1  UNL1       -0.0772
      5 O         138.7525  139.4106  166.0619 O.2     1  UNL1       -0.3537
      6 C         139.4331  140.2164  164.9955 C.ar    1  UNL1        0.1728
      7 C         139.1943  140.1050  163.5187 C.ar    1  UNL1        0.0367
      8 C         137.9323  140.6512  162.9197 C.ar    1  UNL1        0.0032
      9 C         137.6936  140.5397  161.4431 C.ar    1  UNL1        0.0044
     10 C         138.7169  139.8820  160.5654 C.ar    1  UNL1        0.0512
     11 C         139.9789  139.3358  161.1644 C.ar    1  UNL1        0.0022
     12 C         140.2176  139.4473  162.6411 C.ar    1  UNL1        0.0006
     13 C         140.7997  138.7446  160.0568 C.3     1  UNL1        0.1205
     14 N         140.0449  138.9255  158.7732 N.am    1  UNL1       -0.2736
     15 C         138.7576  139.6284  159.0875 C.2     1  UNL1        0.2490
     16 O         137.6973  140.0107  158.0978 O.2     1  UNL1       -0.2699
     17 C         140.4979  138.4814  157.4139 C.3     1  UNL1        0.0761
     18 C         139.6571  137.5282  156.6175 C.3     1  UNL1        0.0215
     19 C         141.7918  138.9905  156.8511 C.3     1  UNL1        0.0215
     20 C         141.0975  141.6497  168.1956 C.ar    1  UNL1        0.0482
     21 C         140.5005  142.8303  168.9025 C.ar    1  UNL1        0.0061
     22 C         141.2902  143.5535  169.9530 C.ar    1  UNL1        0.0298
     23 C         142.6768  143.0961  170.2964 C.ar    1  UNL1        0.1424
     24 F         143.4664  143.8194  171.3469 F       1  UNL1       -0.2041
     25 C         143.2738  141.9155  169.5895 C.ar    1  UNL1        0.0593
     26 C         142.4842  141.1923  168.5391 C.ar    1  UNL1        0.1439
     27 F         143.0812  140.0117  167.8321 F       1  UNL1       -0.2040
@<TRIPOS>BOND
     1     1     2    1
     2     2     3   ar
     3     3    20    1
     4    20    21   ar
     5    21    22   ar
     6    22    23   ar
     7    23    24    1
     8    23    25   ar
     9    25    26   ar
    10    26    27    1
    11     3     4   ar
    12     4     5   ar
    13     5     6   ar
    14     6     7    1
    15     7     8   ar
    16     8     9   ar
    17     9    10   ar
    18    10    11   ar
    19    11    12   ar
    20    11    13    1
    21    13    14    1
    22    14    17    1
    23    17    18    1
    24    17    19    1
    25    14    15   am
    26    15    16    2
    27     6     2   ar
    28    12     7   ar
    29    26    20   ar
    30    15    10    1
@<TRIPOS>MOLECULE
*****
 27 30 0 0 0
SMALL
GASTEIGER

@<TRIPOS>ATOM
      1 C         141.8101  141.4679  165.5118 C.3     1  UNL1        0.0360
      2 C         142.5360  140.2431  165.9839 C.ar    1  UNL1        0.0361
      3 C         142.6303  139.7662  167.4029 C.ar    1  UNL1        0.1211
      4 N         143.4477  138.5085  167.4158 N.ar    1  UNL1       -0.0772
      5 O         143.8585  138.2082  166.0048 O.2     1  UNL1       -0.3537
      6 C         143.2951  139.2803  165.1198 C.ar    1  UNL1        0.1728
      7 C         143.4616  139.3731  163.6319 C.ar    1  UNL1        0.0367
      8 C         144.3343  140.4399  163.0400 C.ar    1  UNL1        0.0032
      9 C         144.5007  140.5327  161.5522 C.ar    1  UNL1        0.0044
     10 C         143.7945  139.5587  160.6563 C.ar    1  UNL1        0.0512
     11 C         142.9218  138.4920  161.2482 C.ar    1  UNL1        0.0022
     12 C         142.7553  138.3992  162.7360 C.ar    1  UNL1        0.0006
     13 C         142.3557  137.6785  160.1222 C.3     1  UNL1        0.1205
     14 N         142.8786  138.2425  158.8344 N.am    1  UNL1       -0.2736
     15 C         143.7678  139.4046  159.1644 C.2     1  UNL1        0.2490
     16 O         144.5015  140.2620  158.1762 O.2     1  UNL1       -0.2699
     17 C         142.5669  137.7338  157.4581 C.3     1  UNL1        0.0761
     18 C         142.8589  136.3062  157.1022 C.3     1  UNL1        0.0215
     19 C         141.9632  138.6527  156.4377 C.3     1  UNL1        0.0215
     20 C         142.0151  140.4303  168.5990 C.ar    1  UNL1        0.0482
     21 C         142.8755  141.2080  169.5502 C.ar    1  UNL1        0.0061
     22 C         142.2604  141.8721  170.7463 C.ar    1  UNL1        0.0298
     23 C         140.7849  141.7585  170.9911 C.ar    1  UNL1        0.1424
     24 F         140.1698  142.4226  172.1872 F       1  UNL1       -0.2041
     25 C         139.9245  140.9807  170.0398 C.ar    1  UNL1        0.0593
     26 C         140.5396  140.3167  168.8438 C.ar    1  UNL1        0.1439
     27 F         139.6792  139.5388  167.8925 F       1  UNL1       -0.2040
@<TRIPOS>BOND
     1     1     2    1
     2     2     3   ar
     3     3    20    1
     4    20    21   ar
     5    21    22   ar
     6    22    23   ar
     7    23    24    1
     8    23    25   ar
     9    25    26   ar
    10    26    27    1
    11     3     4   ar
    12     4     5   ar
    13     5     6   ar
    14     6     7    1
    15     7     8   ar
    16     8     9   ar
    17     9    10   ar
    18    10    11   ar
    19    11    12   ar
    20    11    13    1
    21    13    14    1
    22    14    17    1
    23    17    18    1
    24    17    19    1
    25    14    15   am
    26    15    16    2
    27     6     2   ar
    28    12     7   ar
    29    26    20   ar
    30    15    10    1
@<TRIPOS>MOLECULE
*****
 27 30 0 0 0
SMALL
GASTEIGER

@<TRIPOS>ATOM
      1 C         141.0755  141.4884  164.8688 C.3     1  UNL1        0.0360
      2 C         141.9179  140.4185  165.4979 C.ar    1  UNL1        0.0361
      3 C         142.0555  140.1554  166.9682 C.ar    1  UNL1        0.1211
      4 N         142.9933  138.9982  167.1462 N.ar    1  UNL1       -0.0772
      5 O         143.4351  138.5462  165.7859 O.2     1  UNL1       -0.3537
      6 C         142.7705  139.4240  164.7672 C.ar    1  UNL1        0.1728
      7 C         142.9304  139.3247  163.2790 C.ar    1  UNL1        0.0367
      8 C         142.6390  138.0310  162.5780 C.ar    1  UNL1        0.0032
      9 C         142.7989  137.9318  161.0899 C.ar    1  UNL1        0.0044
     10 C         143.2503  139.1262  160.3028 C.ar    1  UNL1        0.0512
     11 C         143.5418  140.4199  161.0037 C.ar    1  UNL1        0.0022
     12 C         143.3818  140.5191  162.4918 C.ar    1  UNL1        0.0006
     13 C         143.9675  141.4210  159.9710 C.3     1  UNL1        0.1205
     14 N         143.9392  140.7460  158.6317 N.am    1  UNL1       -0.2736
     15 C         143.4959  139.3277  158.8367 C.2     1  UNL1        0.2490
     16 O         143.3278  138.2927  157.7642 O.2     1  UNL1       -0.2699
     17 C         144.2921  141.3783  157.3180 C.3     1  UNL1        0.0761
     18 C         145.4509  140.8560  156.5215 C.3     1  UNL1        0.0215
     19 C         143.4863  142.5330  156.8010 C.3     1  UNL1        0.0215
     20 C         141.3750  140.9159  168.0675 C.ar    1  UNL1        0.0482
     21 C         140.0980  140.3971  168.6593 C.ar    1  UNL1        0.0061
     22 C         139.4175  141.1576  169.7586 C.ar    1  UNL1        0.0298
     23 C         140.0139  142.4368  170.2661 C.ar    1  UNL1        0.1424
     24 F         139.3333  143.1973  171.3655 F       1  UNL1       -0.2041
     25 C         141.2909  142.9557  169.6744 C.ar    1  UNL1        0.0593
     26 C         141.9714  142.1952  168.5751 C.ar    1  UNL1        0.1439
     27 F         143.2484  142.7140  167.9833 F       1  UNL1       -0.2040
@<TRIPOS>BOND
     1     1     2    1
     2     2     3   ar
     3     3    20    1
     4    20    21   ar
     5    21    22   ar
     6    22    23   ar
     7    23    24    1
     8    23    25   ar
     9    25    26   ar
    10    26    27    1
    11     3     4   ar
    12     4     5   ar
    13     5     6   ar
    14     6     7    1
    15     7     8   ar
    16     8     9   ar
    17     9    10   ar
    18    10    11   ar
    19    11    12   ar
    20    11    13    1
    21    13    14    1
    22    14    17    1
    23    17    18    1
    24    17    19    1
    25    14    15   am
    26    15    16    2
    27     6     2   ar
    28    12     7   ar
    29    26    20   ar
    30    15    10    1
@<TRIPOS>MOLECULE
*****
 27 30 0 0 0
SMALL
GASTEIGER

@<TRIPOS>ATOM
      1 C         140.8931  141.3175  164.8149 C.3     1  UNL1        0.0360
      2 C         141.7556  140.2611  165.4396 C.ar    1  UNL1        0.0361
      3 C         141.9524  140.0394  166.9100 C.ar    1  UNL1        0.1211
      4 N         142.8912  138.8822  167.0827 N.ar    1  UNL1       -0.0772
      5 O         143.2744  138.3888  165.7190 O.2     1  UNL1       -0.3537
      6 C         142.5726  139.2410  164.7035 C.ar    1  UNL1        0.1728
      7 C         142.6706  139.0981  163.2135 C.ar    1  UNL1        0.0367
      8 C         144.0030  139.2165  162.5348 C.ar    1  UNL1        0.0032
      9 C         144.1010  139.0736  161.0448 C.ar    1  UNL1        0.0044
     10 C         142.8666  138.8123  160.2337 C.ar    1  UNL1        0.0512
     11 C         141.5342  138.6938  160.9124 C.ar    1  UNL1        0.0022
     12 C         141.4363  138.8367  162.4023 C.ar    1  UNL1        0.0006
     13 C         140.4986  138.4352  159.8586 C.3     1  UNL1        0.1205
     14 N         141.1908  138.3939  158.5285 N.am    1  UNL1       -0.2736
     15 C         142.6544  138.6269  158.7603 C.2     1  UNL1        0.2490
     16 O         143.7188  138.6674  157.7042 O.2     1  UNL1       -0.2699
     17 C         140.5347  138.1604  157.2000 C.3     1  UNL1        0.0761
     18 C         139.5670  139.1682  156.6540 C.3     1  UNL1        0.0215
     19 C         140.8463  136.9193  156.4174 C.3     1  UNL1        0.0215
     20 C         141.3214  140.8352  168.0139 C.ar    1  UNL1        0.0482
     21 C         140.0706  140.3383  168.6761 C.ar    1  UNL1        0.0061
     22 C         139.4396  141.1341  169.7800 C.ar    1  UNL1        0.0298
     23 C         140.0593  142.4266  170.2216 C.ar    1  UNL1        0.1424
     24 F         139.4283  143.2224  171.3255 F       1  UNL1       -0.2041
     25 C         141.3102  142.9236  169.5593 C.ar    1  UNL1        0.0593
     26 C         141.9411  142.1278  168.4555 C.ar    1  UNL1        0.1439
     27 F         143.1920  142.6247  167.7931 F       1  UNL1       -0.2040
@<TRIPOS>BOND
     1     1     2    1
     2     2     3   ar
     3     3    20    1
     4    20    21   ar
     5    21    22   ar
     6    22    23   ar
     7    23    24    1
     8    23    25   ar
     9    25    26   ar
    10    26    27    1
    11     3     4   ar
    12     4     5   ar
    13     5     6   ar
    14     6     7    1
    15     7     8   ar
    16     8     9   ar
    17     9    10   ar
    18    10    11   ar
    19    11    12   ar
    20    11    13    1
    21    13    14    1
    22    14    17    1
    23    17    18    1
    24    17    19    1
    25    14    15   am
    26    15    16    2
    27     6     2   ar
    28    12     7   ar
    29    26    20   ar
    30    15    10    1
@<TRIPOS>MOLECULE
*****
 27 30 0 0 0
SMALL
GASTEIGER

@<TRIPOS>ATOM
      1 C         140.9009  141.1264  165.3609 C.3     1  UNL1        0.0360
      2 C         139.8437  140.1685  165.8242 C.ar    1  UNL1        0.0361
      3 C         139.5350  139.8181  167.2496 C.ar    1  UNL1        0.1211
      4 N         138.4101  138.8257  167.2498 N.ar    1  UNL1       -0.0772
      5 O         138.0236  138.5629  165.8245 O.2     1  UNL1       -0.3537
      6 C         138.9097  139.3927  164.9434 C.ar    1  UNL1        0.1728
      7 C         138.8688  139.4387  163.4446 C.ar    1  UNL1        0.0367
      8 C         139.1231  138.1929  162.6488 C.ar    1  UNL1        0.0032
      9 C         139.0822  138.2390  161.1501 C.ar    1  UNL1        0.0044
     10 C         138.7870  139.5308  160.4472 C.ar    1  UNL1        0.0512
     11 C         138.5328  140.7766  161.2430 C.ar    1  UNL1        0.0022
     12 C         138.5736  140.7305  162.7417 C.ar    1  UNL1        0.0006
     13 C         138.2697  141.8961  160.2800 C.3     1  UNL1        0.1205
     14 N         138.3614  141.3422  158.8890 N.am    1  UNL1       -0.2736
     15 C         138.6811  139.8804  158.9923 C.2     1  UNL1        0.2490
     16 O         138.8630  138.9342  157.8426 O.2     1  UNL1       -0.2699
     17 C         138.1673  142.1147  157.6178 C.3     1  UNL1        0.0761
     18 C         139.1266  143.2077  157.2506 C.3     1  UNL1        0.0215
     19 C         137.0140  141.7940  156.7140 C.3     1  UNL1        0.0215
     20 C         140.2292  140.3641  168.4620 C.ar    1  UNL1        0.0482
     21 C         139.5017  141.2932  169.3880 C.ar    1  UNL1        0.0061
     22 C         140.1960  141.8392  170.6004 C.ar    1  UNL1        0.0298
     23 C         141.6176  141.4562  170.8867 C.ar    1  UNL1        0.1424
     24 F         142.3119  142.0022  172.0991 F       1  UNL1       -0.2041
     25 C         142.3452  140.5271  169.9606 C.ar    1  UNL1        0.0593
     26 C         141.6509  139.9811  168.7483 C.ar    1  UNL1        0.1439
     27 F         142.3784  139.0520  167.8222 F       1  UNL1       -0.2040
@<TRIPOS>BOND
     1     1     2    1
     2     2     3   ar
     3     3    20    1
     4    20    21   ar
     5    21    22   ar
     6    22    23   ar
     7    23    24    1
     8    23    25   ar
     9    25    26   ar
    10    26    27    1
    11     3     4   ar
    12     4     5   ar
    13     5     6   ar
    14     6     7    1
    15     7     8   ar
    16     8     9   ar
    17     9    10   ar
    18    10    11   ar
    19    11    12   ar
    20    11    13    1
    21    13    14    1
    22    14    17    1
    23    17    18    1
    24    17    19    1
    25    14    15   am
    26    15    16    2
    27     6     2   ar
    28    12     7   ar
    29    26    20   ar
    30    15    10    1
@<TRIPOS>MOLECULE
*****
 27 30 0 0 0
SMALL
GASTEIGER

@<TRIPOS>ATOM
      1 C         141.3812  141.1798  161.5080 C.3     1  UNL1        0.0360
      2 C         140.4276  141.8068  160.5347 C.ar    1  UNL1        0.0361
      3 C         139.4146  142.8667  160.8513 C.ar    1  UNL1        0.1211
      4 N         138.6804  143.1991  159.5861 N.ar    1  UNL1       -0.0772
      5 O         139.2399  142.3446  158.4876 O.2     1  UNL1       -0.3537
      6 C         140.3197  141.4841  159.0738 C.ar    1  UNL1        0.1728
      7 C         141.1464  140.4777  158.3297 C.ar    1  UNL1        0.0367
      8 C         142.5984  140.7469  158.0669 C.ar    1  UNL1        0.0032
      9 C         143.4251  139.7404  157.3228 C.ar    1  UNL1        0.0044
     10 C         142.7997  138.4648  156.8416 C.ar    1  UNL1        0.0512
     11 C         141.3477  138.1955  157.1044 C.ar    1  UNL1        0.0022
     12 C         140.5210  139.2020  157.8485 C.ar    1  UNL1        0.0006
     13 C         141.0096  136.8593  156.5128 C.3     1  UNL1        0.1205
     14 N         142.2526  136.3026  155.8843 N.am    1  UNL1       -0.2736
     15 C         143.3590  137.2948  156.0875 C.2     1  UNL1        0.2490
     16 O         144.7759  137.1437  155.6190 O.2     1  UNL1       -0.2699
     17 C         142.3688  134.9850  155.1769 C.3     1  UNL1        0.0761
     18 C         142.6285  133.7330  155.9611 C.3     1  UNL1        0.0215
     19 C         142.2253  134.9194  153.6852 C.3     1  UNL1        0.0215
     20 C         139.1772  143.4856  162.1970 C.ar    1  UNL1        0.0482
     21 C         137.9124  143.1884  162.9466 C.ar    1  UNL1        0.0061
     22 C         137.6751  143.8073  164.2922 C.ar    1  UNL1        0.0298
     23 C         138.7025  144.7234  164.8881 C.ar    1  UNL1        0.1424
     24 F         138.4652  145.3423  166.2337 F       1  UNL1       -0.2041
     25 C         139.9674  145.0206  164.1384 C.ar    1  UNL1        0.0593
     26 C         140.2046  144.4017  162.7929 C.ar    1  UNL1        0.1439
     27 F         141.4695  144.6989  162.0432 F       1  UNL1       -0.2040
@<TRIPOS>BOND
     1     1     2    1
     2     2     3   ar
     3     3    20    1
     4    20    21   ar
     5    21    22   ar
     6    22    23   ar
     7    23    24    1
     8    23    25   ar
     9    25    26   ar
    10    26    27    1
    11     3     4   ar
    12     4     5   ar
    13     5     6   ar
    14     6     7    1
    15     7     8   ar
    16     8     9   ar
    17     9    10   ar
    18    10    11   ar
    19    11    12   ar
    20    11    13    1
    21    13    14    1
    22    14    17    1
    23    17    18    1
    24    17    19    1
    25    14    15   am
    26    15    16    2
    27     6     2   ar
    28    12     7   ar
    29    26    20   ar
    30    15    10    1
@<TRIPOS>MOLECULE
*****
 27 30 0 0 0
SMALL
GASTEIGER

@<TRIPOS>ATOM
      1 C         141.7810  141.1020  164.7342 C.3     1  UNL1        0.0360
      2 C         140.9135  142.1603  165.3485 C.ar    1  UNL1        0.0361
      3 C         140.7647  142.4364  166.8154 C.ar    1  UNL1        0.1211
      4 N         139.8017  143.5751  166.9773 N.ar    1  UNL1       -0.0772
      5 O         139.3554  144.0027  165.6106 O.2     1  UNL1       -0.3537
      6 C         140.0426  143.1283  164.6039 C.ar    1  UNL1        0.1728
      7 C         139.8862  143.2079  163.1142 C.ar    1  UNL1        0.0367
      8 C         139.0943  142.1625  162.3862 C.ar    1  UNL1        0.0032
      9 C         138.9380  142.2422  160.8966 C.ar    1  UNL1        0.0044
     10 C         139.5735  143.3673  160.1349 C.ar    1  UNL1        0.0512
     11 C         140.3653  144.4128  160.8628 C.ar    1  UNL1        0.0022
     12 C         140.5217  144.3331  162.3525 C.ar    1  UNL1        0.0006
     13 C         140.8731  145.3973  159.8515 C.3     1  UNL1        0.1205
     14 N         140.3951  144.9604  158.4985 N.am    1  UNL1       -0.2736
     15 C         139.5918  143.7058  158.6736 C.2     1  UNL1        0.2490
     16 O         138.9242  142.9264  157.5796 O.2     1  UNL1       -0.2699
     17 C         140.6717  145.6561  157.1986 C.3     1  UNL1        0.0761
     18 C         139.7045  146.6746  156.6724 C.3     1  UNL1        0.0215
     19 C         141.9156  145.3331  156.4250 C.3     1  UNL1        0.0215
     20 C         141.4572  141.7027  167.9254 C.ar    1  UNL1        0.0482
     21 C         142.6479  142.3155  168.6011 C.ar    1  UNL1        0.0061
     22 C         143.3404  141.5818  169.7111 C.ar    1  UNL1        0.0298
     23 C         142.8422  140.2354  170.1454 C.ar    1  UNL1        0.1424
     24 F         143.5347  139.5016  171.2554 F       1  UNL1       -0.2041
     25 C         141.6514  139.6225  169.4696 C.ar    1  UNL1        0.0593
     26 C         140.9590  140.3562  168.3597 C.ar    1  UNL1        0.1439
     27 F         139.7681  139.7434  167.6839 F       1  UNL1       -0.2040
@<TRIPOS>BOND
     1     1     2    1
     2     2     3   ar
     3     3    20    1
     4    20    21   ar
     5    21    22   ar
     6    22    23   ar
     7    23    24    1
     8    23    25   ar
     9    25    26   ar
    10    26    27    1
    11     3     4   ar
    12     4     5   ar
    13     5     6   ar
    14     6     7    1
    15     7     8   ar
    16     8     9   ar
    17     9    10   ar
    18    10    11   ar
    19    11    12   ar
    20    11    13    1
    21    13    14    1
    22    14    17    1
    23    17    18    1
    24    17    19    1
    25    14    15   am
    26    15    16    2
    27     6     2   ar
    28    12     7   ar
    29    26    20   ar
    30    15    10    1
@<TRIPOS>MOLECULE
*****
 27 30 0 0 0
SMALL
GASTEIGER

@<TRIPOS>ATOM
      1 C         141.4365  137.7136  157.3667 C.3     1  UNL1        0.0360
      2 C         142.7861  137.9149  156.7437 C.ar    1  UNL1        0.0361
      3 C         143.5430  136.9042  155.9340 C.ar    1  UNL1        0.1211
      4 N         144.8404  137.5269  155.5108 N.ar    1  UNL1       -0.0772
      5 O         144.8853  138.9224  156.0590 O.2     1  UNL1       -0.3537
      6 C         143.6157  139.1622  156.8209 C.ar    1  UNL1        0.1728
      7 C         143.2414  140.4273  157.5348 C.ar    1  UNL1        0.0367
      8 C         142.6410  141.5700  156.7709 C.ar    1  UNL1        0.0032
      9 C         142.2667  142.8350  157.4847 C.ar    1  UNL1        0.0044
     10 C         142.4928  142.9573  158.9626 C.ar    1  UNL1        0.0512
     11 C         143.0932  141.8145  159.7265 C.ar    1  UNL1        0.0022
     12 C         143.4674  140.5495  159.0126 C.ar    1  UNL1        0.0006
     13 C         143.1973  142.2232  161.1660 C.3     1  UNL1        0.1205
     14 N         142.6613  143.6185  161.2917 N.am    1  UNL1       -0.2736
     15 C         142.2259  144.0722  159.9299 C.2     1  UNL1        0.2490
     16 O         141.6284  145.4066  159.5944 O.2     1  UNL1       -0.2699
     17 C         142.5757  144.4194  162.5572 C.3     1  UNL1        0.0761
     18 C         143.8261  144.9425  163.1996 C.3     1  UNL1        0.0215
     19 C         141.2397  144.6972  163.1800 C.3     1  UNL1        0.0215
     20 C         143.0832  135.5148  155.6052 C.ar    1  UNL1        0.0482
     21 C         142.6789  135.1709  154.2023 C.ar    1  UNL1        0.0061
     22 C         142.2191  133.7814  153.8735 C.ar    1  UNL1        0.0298
     23 C         142.1638  132.7360  154.9476 C.ar    1  UNL1        0.1424
     24 F         141.7040  131.3465  154.6188 F       1  UNL1       -0.2041
     25 C         142.5681  133.0798  156.3506 C.ar    1  UNL1        0.0593
     26 C         143.0278  134.4692  156.6793 C.ar    1  UNL1        0.1439
     27 F         143.4322  134.8132  158.0823 F       1  UNL1       -0.2040
@<TRIPOS>BOND
     1     1     2    1
     2     2     3   ar
     3     3    20    1
     4    20    21   ar
     5    21    22   ar
     6    22    23   ar
     7    23    24    1
     8    23    25   ar
     9    25    26   ar
    10    26    27    1
    11     3     4   ar
    12     4     5   ar
    13     5     6   ar
    14     6     7    1
    15     7     8   ar
    16     8     9   ar
    17     9    10   ar
    18    10    11   ar
    19    11    12   ar
    20    11    13    1
    21    13    14    1
    22    14    17    1
    23    17    18    1
    24    17    19    1
    25    14    15   am
    26    15    16    2
    27     6     2   ar
    28    12     7   ar
    29    26    20   ar
    30    15    10    1
@<TRIPOS>MOLECULE
*****
 27 30 0 0 0
SMALL
GASTEIGER

@<TRIPOS>ATOM
      1 C         140.7129  138.1346  161.4918 C.3     1  UNL1        0.0360
      2 C         142.0526  138.6719  161.0837 C.ar    1  UNL1        0.0361
      3 C         142.5892  138.7323  159.6843 C.ar    1  UNL1        0.1211
      4 N         143.9591  139.3409  159.7390 N.ar    1  UNL1       -0.0772
      5 O         144.2691  139.6566  161.1723 O.2     1  UNL1       -0.3537
      6 C         143.0908  139.2431  162.0033 C.ar    1  UNL1        0.1728
      7 C         142.9717  139.3773  163.4926 C.ar    1  UNL1        0.0367
      8 C         142.7210  138.1635  164.3374 C.ar    1  UNL1        0.0032
      9 C         142.6019  138.2977  165.8266 C.ar    1  UNL1        0.0044
     10 C         142.7336  139.6458  166.4710 C.ar    1  UNL1        0.0512
     11 C         142.9843  140.8596  165.6263 C.ar    1  UNL1        0.0022
     12 C         143.1034  140.7254  164.1371 C.ar    1  UNL1        0.0006
     13 C         143.0688  142.0486  166.5368 C.3     1  UNL1        0.1205
     14 N         142.8701  141.5696  167.9444 N.am    1  UNL1       -0.2736
     15 C         142.6630  140.0846  167.9037 C.2     1  UNL1        0.2490
     16 O         142.4267  139.1946  169.0878 O.2     1  UNL1       -0.2699
     17 C         142.8774  142.4255  169.1763 C.3     1  UNL1        0.0761
     18 C         141.6104  143.0785  169.6433 C.3     1  UNL1        0.0215
     19 C         144.1518  142.6283  169.9410 C.3     1  UNL1        0.0215
     20 C         141.8803  138.2660  158.4473 C.ar    1  UNL1        0.0482
     21 C         142.4370  137.1246  157.6491 C.ar    1  UNL1        0.0061
     22 C         141.7282  136.6583  156.4121 C.ar    1  UNL1        0.0298
     23 C         140.4627  137.3335  155.9734 C.ar    1  UNL1        0.1424
     24 F         139.7538  136.8672  154.7364 F       1  UNL1       -0.2041
     25 C         139.9059  138.4750  156.7716 C.ar    1  UNL1        0.0593
     26 C         140.6148  138.9412  158.0085 C.ar    1  UNL1        0.1439
     27 F         140.0580  140.0827  158.8069 F       1  UNL1       -0.2040
@<TRIPOS>BOND
     1     1     2    1
     2     2     3   ar
     3     3    20    1
     4    20    21   ar
     5    21    22   ar
     6    22    23   ar
     7    23    24    1
     8    23    25   ar
     9    25    26   ar
    10    26    27    1
    11     3     4   ar
    12     4     5   ar
    13     5     6   ar
    14     6     7    1
    15     7     8   ar
    16     8     9   ar
    17     9    10   ar
    18    10    11   ar
    19    11    12   ar
    20    11    13    1
    21    13    14    1
    22    14    17    1
    23    17    18    1
    24    17    19    1
    25    14    15   am
    26    15    16    2
    27     6     2   ar
    28    12     7   ar
    29    26    20   ar
    30    15    10    1
