@<TRIPOS>MOLECULE
*****
 25 29 0 0 0
SMALL
GASTEIGER

@<TRIPOS>ATOM
      1 N         138.3901  139.0384  165.9258 N.3     1  UNL1       -0.2725
      2 C         138.2040  140.3011  165.1379 C.3     1  UNL1        0.0724
      3 C         138.3990  140.2927  163.6507 C.3     1  UNL1        0.0214
      4 C         138.7801  139.0215  162.9514 C.3     1  UNL1        0.0216
      5 C         139.1596  137.8330  162.1186 C.3     1  UNL1        0.0088
      6 C         139.2438  138.2771  160.6883 C.3     1  UNL1        0.0264
      7 C         138.9164  139.7401  160.6371 C.ar    1  UNL1       -0.0261
      8 C         138.8422  140.7127  159.4976 C.ar    1  UNL1       -0.0046
      9 C         138.4814  142.1454  159.7567 C.ar    1  UNL1       -0.0003
     10 C         138.1948  142.6055  161.1554 C.ar    1  UNL1       -0.0003
     11 C         138.2690  141.6329  162.2949 C.ar    1  UNL1       -0.0046
     12 C         138.6298  140.2001  162.0357 C.ar    1  UNL1       -0.0266
     13 C         138.9661  137.7588  163.7393 C.3     1  UNL1        0.0214
     14 C         138.7711  137.7672  165.2265 C.3     1  UNL1        0.0724
     15 C         138.1951  139.0468  167.4131 C.3     1  UNL1        0.0761
     16 C         143.5714  142.4411  168.9374 C.ar    1  UNL1       -0.0001
     17 C         143.1906  142.7380  170.3576 C.ar    1  UNL1        0.0031
     18 C         141.8868  142.2372  170.9048 C.ar    1  UNL1        0.0366
     19 C         140.9639  141.4396  170.0319 C.ar    1  UNL1        0.1345
     20 C         141.3447  141.1428  168.6117 C.ar    1  UNL1        0.0119
     21 C         142.6484  141.6435  168.0645 C.ar    1  UNL1       -0.0013
     22 C         140.4218  140.3452  167.7388 C.3     1  UNL1        0.0345
     23 C         139.1180  139.8444  168.2860 C.3     1  UNL1        0.0641
     24 C         138.7372  140.1413  169.7062 C.3     1  UNL1        0.2070
     25 O         139.6602  140.9389  170.5791 O.3     1  UNL1       -0.4757
@<TRIPOS>BOND
     1    16    17   ar
     2    17    18   ar
     3    18    19   ar
     4    19    20   ar
     5    20    21   ar
     6    20    22    1
     7    22    23    1
     8    23    15    1
     9    15     1    1
    10     1     2    1
    11     2     3    1
    12     3     4    1
    13     4     5    1
    14     5     6    1
    15     6     7    1
    16     7     8   ar
    17     8     9   ar
    18     9    10   ar
    19    10    11   ar
    20    11    12   ar
    21     4    13    1
    22    13    14    1
    23    23    24    1
    24    24    25    1
    25    21    16   ar
    26    14     1    1
    27    25    19    1
    28    12     4    1
    29    12     7   ar
@<TRIPOS>MOLECULE
*****
 25 29 0 0 0
SMALL
GASTEIGER

@<TRIPOS>ATOM
      1 N         139.1336  138.5073  165.0729 N.3     1  UNL1       -0.2725
      2 C         140.3794  139.3228  165.2543 C.3     1  UNL1        0.0724
      3 C         140.6239  140.0409  166.5483 C.3     1  UNL1        0.0214
      4 C         139.6225  139.9436  167.6608 C.3     1  UNL1        0.0216
      5 C         138.7166  139.9395  168.8564 C.3     1  UNL1        0.0088
      6 C         139.3501  140.7854  169.9210 C.3     1  UNL1        0.0264
      7 C         140.6476  141.3123  169.3833 C.ar    1  UNL1       -0.0261
      8 C         141.6974  142.1987  169.9852 C.ar    1  UNL1       -0.0046
      9 C         142.9156  142.5648  169.1903 C.ar    1  UNL1       -0.0003
     10 C         143.0840  142.0446  167.7935 C.ar    1  UNL1       -0.0003
     11 C         142.0341  141.1583  167.1916 C.ar    1  UNL1       -0.0046
     12 C         140.8159  140.7922  167.9866 C.ar    1  UNL1       -0.0266
     13 C         138.3767  139.1282  167.4795 C.3     1  UNL1        0.0214
     14 C         138.1322  138.4101  166.1855 C.3     1  UNL1        0.0724
     15 C         138.8890  137.7891  163.7788 C.3     1  UNL1        0.0761
     16 C         139.6315  139.2064  157.4393 C.ar    1  UNL1       -0.0001
     17 C         138.7912  140.4490  157.4412 C.ar    1  UNL1        0.0031
     18 C         138.1385  140.9110  158.7103 C.ar    1  UNL1        0.0366
     19 C         138.3261  140.1306  159.9774 C.ar    1  UNL1        0.1345
     20 C         139.1664  138.8880  159.9755 C.ar    1  UNL1        0.0119
     21 C         139.8191  138.4260  158.7065 C.ar    1  UNL1       -0.0013
     22 C         139.3541  138.1076  161.2426 C.3     1  UNL1        0.0345
     23 C         138.7014  138.5696  162.5117 C.3     1  UNL1        0.0641
     24 C         137.8611  139.8121  162.5137 C.3     1  UNL1        0.2070
     25 O         137.6735  140.5926  161.2465 O.3     1  UNL1       -0.4757
@<TRIPOS>BOND
     1    16    17   ar
     2    17    18   ar
     3    18    19   ar
     4    19    20   ar
     5    20    21   ar
     6    20    22    1
     7    22    23    1
     8    23    15    1
     9    15     1    1
    10     1     2    1
    11     2     3    1
    12     3     4    1
    13     4     5    1
    14     5     6    1
    15     6     7    1
    16     7     8   ar
    17     8     9   ar
    18     9    10   ar
    19    10    11   ar
    20    11    12   ar
    21     4    13    1
    22    13    14    1
    23    23    24    1
    24    24    25    1
    25    21    16   ar
    26    14     1    1
    27    25    19    1
    28    12     4    1
    29    12     7   ar
@<TRIPOS>MOLECULE
*****
 25 29 0 0 0
SMALL
GASTEIGER

@<TRIPOS>ATOM
      1 N         141.9655  137.2565  157.3578 N.3     1  UNL1       -0.2725
      2 C         142.9124  136.1508  157.7195 C.3     1  UNL1        0.0724
      3 C         143.0448  134.9542  156.8248 C.3     1  UNL1        0.0214
      4 C         142.2303  134.8633  155.5684 C.3     1  UNL1        0.0216
      5 C         141.4855  134.6339  154.2867 C.3     1  UNL1        0.0088
      6 C         141.9257  133.3147  153.7244 C.3     1  UNL1        0.0264
      7 C         142.9426  132.7288  154.6586 C.ar    1  UNL1       -0.0261
      8 C         143.7215  131.4475  154.6188 C.ar    1  UNL1       -0.0046
      9 C         144.6885  131.1232  155.7185 C.ar    1  UNL1       -0.0003
     10 C         144.8769  132.0802  156.8581 C.ar    1  UNL1       -0.0003
     11 C         144.0980  133.3615  156.8980 C.ar    1  UNL1       -0.0046
     12 C         143.1309  133.6858  155.7982 C.ar    1  UNL1       -0.0266
     13 C         141.2835  135.9690  155.2068 C.3     1  UNL1        0.0214
     14 C         141.1511  137.1656  156.1015 C.3     1  UNL1        0.0724
     15 C         141.8330  138.4531  158.2526 C.3     1  UNL1        0.0761
     16 C         141.0360  137.5108  164.6734 C.ar    1  UNL1       -0.0001
     17 C         139.5492  137.7086  164.6931 C.ar    1  UNL1        0.0031
     18 C         138.8166  138.0157  163.4207 C.ar    1  UNL1        0.0366
     19 C         139.5707  138.1251  162.1287 C.ar    1  UNL1        0.1345
     20 C         141.0575  137.9273  162.1090 C.ar    1  UNL1        0.0119
     21 C         141.7901  137.6201  163.3813 C.ar    1  UNL1       -0.0013
     22 C         141.8116  138.0366  160.8170 C.3     1  UNL1        0.0345
     23 C         141.0789  138.3438  159.5446 C.3     1  UNL1        0.0641
     24 C         139.5922  138.5416  159.5643 C.3     1  UNL1        0.2070
     25 O         138.8380  138.4322  160.8563 O.3     1  UNL1       -0.4757
@<TRIPOS>BOND
     1    16    17   ar
     2    17    18   ar
     3    18    19   ar
     4    19    20   ar
     5    20    21   ar
     6    20    22    1
     7    22    23    1
     8    23    15    1
     9    15     1    1
    10     1     2    1
    11     2     3    1
    12     3     4    1
    13     4     5    1
    14     5     6    1
    15     6     7    1
    16     7     8   ar
    17     8     9   ar
    18     9    10   ar
    19    10    11   ar
    20    11    12   ar
    21     4    13    1
    22    13    14    1
    23    23    24    1
    24    24    25    1
    25    21    16   ar
    26    14     1    1
    27    25    19    1
    28    12     4    1
    29    12     7   ar
@<TRIPOS>MOLECULE
*****
 25 29 0 0 0
SMALL
GASTEIGER

@<TRIPOS>ATOM
      1 N         142.2382  137.2205  157.3281 N.3     1  UNL1       -0.2725
      2 C         143.1526  136.0613  157.5930 C.3     1  UNL1        0.0724
      3 C         143.1477  134.8767  156.6729 C.3     1  UNL1        0.0214
      4 C         142.2284  134.8513  155.4879 C.3     1  UNL1        0.0216
      5 C         141.3690  134.6845  154.2698 C.3     1  UNL1        0.0088
      6 C         141.6916  133.3555  153.6534 C.3     1  UNL1        0.0264
      7 C         142.7503  132.7010  154.4905 C.ar    1  UNL1       -0.0261
      8 C         143.4551  131.3827  154.3668 C.ar    1  UNL1       -0.0046
      9 C         144.4917  130.9888  155.3769 C.ar    1  UNL1       -0.0003
     10 C         144.8235  131.9132  156.5107 C.ar    1  UNL1       -0.0003
     11 C         144.1187  133.2315  156.6344 C.ar    1  UNL1       -0.0046
     12 C         143.0821  133.6254  155.6242 C.ar    1  UNL1       -0.0266
     13 C         141.3140  136.0104  155.2230 C.3     1  UNL1        0.0214
     14 C         141.3189  137.1950  156.1431 C.3     1  UNL1        0.0724
     15 C         142.2430  138.4051  158.2483 C.3     1  UNL1        0.0761
     16 C         138.9808  137.7718  163.8792 C.ar    1  UNL1       -0.0001
     17 C         140.1847  137.5961  164.7566 C.ar    1  UNL1        0.0031
     18 C         141.5594  137.6173  164.1569 C.ar    1  UNL1        0.0366
     19 C         141.7303  137.8143  162.6798 C.ar    1  UNL1        0.1345
     20 C         140.5265  137.9900  161.8023 C.ar    1  UNL1        0.0119
     21 C         139.1518  137.9687  162.4020 C.ar    1  UNL1       -0.0013
     22 C         140.6974  138.1869  160.3252 C.3     1  UNL1        0.0345
     23 C         142.0721  138.2082  159.7254 C.3     1  UNL1        0.0641
     24 C         143.2760  138.0325  160.6029 C.3     1  UNL1        0.2070
     25 O         143.1050  137.8356  162.0801 O.3     1  UNL1       -0.4757
@<TRIPOS>BOND
     1    16    17   ar
     2    17    18   ar
     3    18    19   ar
     4    19    20   ar
     5    20    21   ar
     6    20    22    1
     7    22    23    1
     8    23    15    1
     9    15     1    1
    10     1     2    1
    11     2     3    1
    12     3     4    1
    13     4     5    1
    14     5     6    1
    15     6     7    1
    16     7     8   ar
    17     8     9   ar
    18     9    10   ar
    19    10    11   ar
    20    11    12   ar
    21     4    13    1
    22    13    14    1
    23    23    24    1
    24    24    25    1
    25    21    16   ar
    26    14     1    1
    27    25    19    1
    28    12     4    1
    29    12     7   ar
@<TRIPOS>MOLECULE
*****
 25 29 0 0 0
SMALL
GASTEIGER

@<TRIPOS>ATOM
      1 N         139.0396  139.2529  165.2106 N.3     1  UNL1       -0.2725
      2 C         140.3042  140.0345  165.4099 C.3     1  UNL1        0.0724
      3 C         140.6797  140.5169  166.7796 C.3     1  UNL1        0.0214
      4 C         139.7906  140.2177  167.9501 C.3     1  UNL1        0.0216
      5 C         139.0053  139.9964  169.2088 C.3     1  UNL1        0.0088
      6 C         139.7467  140.6481  170.3383 C.3     1  UNL1        0.0264
      7 C         140.9902  141.2721  169.7776 C.ar    1  UNL1       -0.0261
      8 C         142.1013  142.0482  170.4204 C.ar    1  UNL1       -0.0046
      9 C         143.2395  142.5582  169.5872 C.ar    1  UNL1       -0.0003
     10 C         143.2667  142.2923  168.1112 C.ar    1  UNL1       -0.0003
     11 C         142.1556  141.5162  167.4684 C.ar    1  UNL1       -0.0046
     12 C         141.0173  141.0061  168.3017 C.ar    1  UNL1       -0.0266
     13 C         138.5260  139.4361  167.7507 C.3     1  UNL1        0.0214
     14 C         138.1505  138.9537  166.3810 C.3     1  UNL1        0.0724
     15 C         138.6641  138.7705  163.8408 C.3     1  UNL1        0.0761
     16 C         142.0496  140.3814  158.4842 C.ar    1  UNL1       -0.0001
     17 C         142.9885  139.2119  158.5158 C.ar    1  UNL1        0.0031
     18 C         142.8746  138.1881  159.6062 C.ar    1  UNL1        0.0366
     19 C         141.8220  138.3337  160.6648 C.ar    1  UNL1        0.1345
     20 C         140.8832  139.5031  160.6332 C.ar    1  UNL1        0.0119
     21 C         140.9969  140.5269  159.5429 C.ar    1  UNL1       -0.0013
     22 C         139.8305  139.6487  161.6918 C.3     1  UNL1        0.0345
     23 C         139.7167  138.6249  162.7821 C.3     1  UNL1        0.0641
     24 C         140.6556  137.4554  162.8138 C.3     1  UNL1        0.2070
     25 O         141.7082  137.3099  161.7551 O.3     1  UNL1       -0.4757
@<TRIPOS>BOND
     1    16    17   ar
     2    17    18   ar
     3    18    19   ar
     4    19    20   ar
     5    20    21   ar
     6    20    22    1
     7    22    23    1
     8    23    15    1
     9    15     1    1
    10     1     2    1
    11     2     3    1
    12     3     4    1
    13     4     5    1
    14     5     6    1
    15     6     7    1
    16     7     8   ar
    17     8     9   ar
    18     9    10   ar
    19    10    11   ar
    20    11    12   ar
    21     4    13    1
    22    13    14    1
    23    23    24    1
    24    24    25    1
    25    21    16   ar
    26    14     1    1
    27    25    19    1
    28    12     4    1
    29    12     7   ar
@<TRIPOS>MOLECULE
*****
 25 29 0 0 0
SMALL
GASTEIGER

@<TRIPOS>ATOM
      1 N         143.0938  139.2945  164.3583 N.3     1  UNL1       -0.2725
      2 C         143.2867  139.8471  165.7393 C.3     1  UNL1        0.0724
      3 C         142.1209  139.9429  166.6783 C.3     1  UNL1        0.0214
      4 C         140.7623  139.4860  166.2363 C.3     1  UNL1        0.0216
      5 C         139.3524  139.0708  165.9367 C.3     1  UNL1        0.0088
      6 C         138.5204  139.3420  167.1551 C.3     1  UNL1        0.0264
      7 C         139.4162  139.9249  168.2077 C.ar    1  UNL1       -0.0261
      8 C         139.1493  140.3861  169.6098 C.ar    1  UNL1       -0.0046
      9 C         140.2678  140.9363  170.4441 C.ar    1  UNL1       -0.0003
     10 C         141.6534  141.0253  169.8763 C.ar    1  UNL1       -0.0003
     11 C         141.9203  140.5641  168.4742 C.ar    1  UNL1       -0.0046
     12 C         140.8017  140.0139  167.6399 C.ar    1  UNL1       -0.0266
     13 C         140.5695  138.9333  164.8552 C.3     1  UNL1        0.0214
     14 C         141.7352  138.8376  163.9162 C.3     1  UNL1        0.0724
     15 C         144.2596  139.1986  163.4192 C.3     1  UNL1        0.0761
     16 C         143.6201  143.1436  158.2444 C.ar    1  UNL1       -0.0001
     17 C         143.5110  142.0591  157.2138 C.ar    1  UNL1        0.0031
     18 C         143.5735  140.6195  157.6304 C.ar    1  UNL1        0.0366
     19 C         143.7451  140.2643  159.0776 C.ar    1  UNL1        0.1345
     20 C         143.8541  141.3487  160.1082 C.ar    1  UNL1        0.0119
     21 C         143.7916  142.7883  159.6916 C.ar    1  UNL1       -0.0013
     22 C         144.0256  140.9935  161.5554 C.3     1  UNL1        0.0345
     23 C         144.0881  139.5538  161.9720 C.3     1  UNL1        0.0641
     24 C         143.9791  138.4694  160.9414 C.3     1  UNL1        0.2070
     25 O         143.8076  138.8247  159.4942 O.3     1  UNL1       -0.4757
@<TRIPOS>BOND
     1    16    17   ar
     2    17    18   ar
     3    18    19   ar
     4    19    20   ar
     5    20    21   ar
     6    20    22    1
     7    22    23    1
     8    23    15    1
     9    15     1    1
    10     1     2    1
    11     2     3    1
    12     3     4    1
    13     4     5    1
    14     5     6    1
    15     6     7    1
    16     7     8   ar
    17     8     9   ar
    18     9    10   ar
    19    10    11   ar
    20    11    12   ar
    21     4    13    1
    22    13    14    1
    23    23    24    1
    24    24    25    1
    25    21    16   ar
    26    14     1    1
    27    25    19    1
    28    12     4    1
    29    12     7   ar
@<TRIPOS>MOLECULE
*****
 25 29 0 0 0
SMALL
GASTEIGER

@<TRIPOS>ATOM
      1 N         139.2025  142.5184  162.9912 N.3     1  UNL1       -0.2725
      2 C         139.9741  142.9222  164.2125 C.3     1  UNL1        0.0724
      3 C         139.8883  142.0956  165.4612 C.3     1  UNL1        0.0214
      4 C         139.0309  140.8651  165.4886 C.3     1  UNL1        0.0216
      5 C         138.2196  139.6158  165.6649 C.3     1  UNL1        0.0088
      6 C         138.4287  139.1211  167.0656 C.3     1  UNL1        0.0264
      7 C         139.3692  140.0648  167.7549 C.ar    1  UNL1       -0.0261
      8 C         139.9348  140.0818  169.1440 C.ar    1  UNL1       -0.0046
      9 C         140.8725  141.1766  169.5586 C.ar    1  UNL1       -0.0003
     10 C         141.2448  142.2545  168.5840 C.ar    1  UNL1       -0.0003
     11 C         140.6792  142.2374  167.1948 C.ar    1  UNL1       -0.0046
     12 C         139.7414  141.1425  166.7803 C.ar    1  UNL1       -0.0266
     13 C         138.2593  140.4612  164.2673 C.3     1  UNL1        0.0214
     14 C         138.3451  141.2879  163.0186 C.3     1  UNL1        0.0724
     15 C         139.2883  143.3451  161.7425 C.3     1  UNL1        0.0761
     16 C         143.9120  140.3415  158.2283 C.ar    1  UNL1       -0.0001
     17 C         144.6141  141.5849  157.7691 C.ar    1  UNL1        0.0031
     18 C         144.1106  142.9318  158.1964 C.ar    1  UNL1        0.0366
     19 C         142.9050  143.0351  159.0829 C.ar    1  UNL1        0.1345
     20 C         142.2029  141.7916  159.5421 C.ar    1  UNL1        0.0119
     21 C         142.7064  140.4448  159.1148 C.ar    1  UNL1       -0.0013
     22 C         140.9974  141.8949  160.4286 C.3     1  UNL1        0.0345
     23 C         140.4938  143.2418  160.8560 C.3     1  UNL1        0.0641
     24 C         141.1959  144.4852  160.3968 C.3     1  UNL1        0.2070
     25 O         142.4015  144.3819  159.5102 O.3     1  UNL1       -0.4757
@<TRIPOS>BOND
     1    16    17   ar
     2    17    18   ar
     3    18    19   ar
     4    19    20   ar
     5    20    21   ar
     6    20    22    1
     7    22    23    1
     8    23    15    1
     9    15     1    1
    10     1     2    1
    11     2     3    1
    12     3     4    1
    13     4     5    1
    14     5     6    1
    15     6     7    1
    16     7     8   ar
    17     8     9   ar
    18     9    10   ar
    19    10    11   ar
    20    11    12   ar
    21     4    13    1
    22    13    14    1
    23    23    24    1
    24    24    25    1
    25    21    16   ar
    26    14     1    1
    27    25    19    1
    28    12     4    1
    29    12     7   ar
@<TRIPOS>MOLECULE
*****
 25 29 0 0 0
SMALL
GASTEIGER

@<TRIPOS>ATOM
      1 N         139.4777  139.2646  160.5487 N.3     1  UNL1       -0.2725
      2 C         139.9033  140.4311  161.3901 C.3     1  UNL1        0.0724
      3 C         139.8039  140.3537  162.8848 C.3     1  UNL1        0.0214
      4 C         139.2789  139.1097  163.5381 C.3     1  UNL1        0.0216
      5 C         138.7765  137.9382  164.3288 C.3     1  UNL1        0.0088
      6 C         138.8515  138.2947  165.7840 C.3     1  UNL1        0.0264
      7 C         139.4003  139.6865  165.8925 C.ar    1  UNL1       -0.0261
      8 C         139.6937  140.5602  167.0759 C.ar    1  UNL1       -0.0046
      9 C         140.2512  141.9376  166.8714 C.ar    1  UNL1       -0.0003
     10 C         140.5153  142.4414  165.4834 C.ar    1  UNL1       -0.0003
     11 C         140.2220  141.5676  164.3000 C.ar    1  UNL1       -0.0046
     12 C         139.6645  140.1902  164.5046 C.ar    1  UNL1       -0.0266
     13 C         138.8533  137.9431  162.6967 C.3     1  UNL1        0.0214
     14 C         138.9527  138.0205  161.2021 C.3     1  UNL1        0.0724
     15 C         139.5771  139.3420  159.0540 C.3     1  UNL1        0.0761
     16 C         141.7244  135.1777  154.4935 C.ar    1  UNL1       -0.0001
     17 C         143.1532  135.1455  154.9490 C.ar    1  UNL1        0.0031
     18 C         143.5810  135.9591  156.1344 C.ar    1  UNL1        0.0366
     19 C         142.5800  136.8048  156.8643 C.ar    1  UNL1        0.1345
     20 C         141.1512  136.8369  156.4088 C.ar    1  UNL1        0.0119
     21 C         140.7234  136.0234  155.2235 C.ar    1  UNL1       -0.0013
     22 C         140.1502  137.6827  157.1387 C.3     1  UNL1        0.0345
     23 C         140.5781  138.4962  158.3241 C.3     1  UNL1        0.0641
     24 C         142.0069  138.4641  158.7796 C.3     1  UNL1        0.2070
     25 O         143.0079  137.6183  158.0496 O.3     1  UNL1       -0.4757
@<TRIPOS>BOND
     1    16    17   ar
     2    17    18   ar
     3    18    19   ar
     4    19    20   ar
     5    20    21   ar
     6    20    22    1
     7    22    23    1
     8    23    15    1
     9    15     1    1
    10     1     2    1
    11     2     3    1
    12     3     4    1
    13     4     5    1
    14     5     6    1
    15     6     7    1
    16     7     8   ar
    17     8     9   ar
    18     9    10   ar
    19    10    11   ar
    20    11    12   ar
    21     4    13    1
    22    13    14    1
    23    23    24    1
    24    24    25    1
    25    21    16   ar
    26    14     1    1
    27    25    19    1
    28    12     4    1
    29    12     7   ar
@<TRIPOS>MOLECULE
*****
 25 29 0 0 0
SMALL
GASTEIGER

@<TRIPOS>ATOM
      1 N         140.8170  138.9691  164.9623 N.3     1  UNL1       -0.2725
      2 C         141.8839  139.7978  165.6140 C.3     1  UNL1        0.0724
      3 C         141.6459  140.3962  166.9687 C.3     1  UNL1        0.0214
      4 C         140.3410  140.1658  167.6717 C.3     1  UNL1        0.0216
      5 C         139.0933  140.0228  168.4920 C.3     1  UNL1        0.0088
      6 C         139.2901  140.7809  169.7713 C.3     1  UNL1        0.0264
      7 C         140.6595  141.3924  169.7417 C.ar    1  UNL1       -0.0261
      8 C         141.3990  142.2462  170.7287 C.ar    1  UNL1       -0.0046
      9 C         142.7878  142.7200  170.4181 C.ar    1  UNL1       -0.0003
     10 C         143.4374  142.3399  169.1205 C.ar    1  UNL1       -0.0003
     11 C         142.6979  141.4860  168.1335 C.ar    1  UNL1       -0.0046
     12 C         141.3090  141.0123  168.4442 C.ar    1  UNL1       -0.0266
     13 C         139.2741  139.3370  167.0200 C.3     1  UNL1        0.0214
     14 C         139.5121  138.7386  165.6653 C.3     1  UNL1        0.0724
     15 C         141.0549  138.3706  163.6075 C.3     1  UNL1        0.0761
     16 C         139.1492  142.9575  159.3555 C.ar    1  UNL1       -0.0001
     17 C         138.3323  142.0529  158.4812 C.ar    1  UNL1        0.0031
     18 C         138.2234  140.5927  158.8071 C.ar    1  UNL1        0.0366
     19 C         138.9313  140.0372  160.0072 C.ar    1  UNL1        0.1345
     20 C         139.7481  140.9418  160.8815 C.ar    1  UNL1        0.0119
     21 C         139.8571  142.4019  160.5557 C.ar    1  UNL1       -0.0013
     22 C         140.4560  140.3863  162.0816 C.3     1  UNL1        0.0345
     23 C         140.3470  138.9261  162.4074 C.3     1  UNL1        0.0641
     24 C         139.5302  138.0215  161.5331 C.3     1  UNL1        0.2070
     25 O         138.8223  138.5771  160.3329 O.3     1  UNL1       -0.4757
@<TRIPOS>BOND
     1    16    17   ar
     2    17    18   ar
     3    18    19   ar
     4    19    20   ar
     5    20    21   ar
     6    20    22    1
     7    22    23    1
     8    23    15    1
     9    15     1    1
    10     1     2    1
    11     2     3    1
    12     3     4    1
    13     4     5    1
    14     5     6    1
    15     6     7    1
    16     7     8   ar
    17     8     9   ar
    18     9    10   ar
    19    10    11   ar
    20    11    12   ar
    21     4    13    1
    22    13    14    1
    23    23    24    1
    24    24    25    1
    25    21    16   ar
    26    14     1    1
    27    25    19    1
    28    12     4    1
    29    12     7   ar
