@<TRIPOS>MOLECULE
*****
 29 33 0 0 0
SMALL
GASTEIGER

@<TRIPOS>ATOM
      1 O         138.7150  139.5074  168.9893 O.2     1  UNL1       -0.2699
      2 C         139.6501  140.3570  168.1806 C.2     1  UNL1        0.2490
      3 N         139.5518  140.3645  166.6838 N.am    1  UNL1       -0.2761
      4 C         138.5185  139.5225  165.9958 C.3     1  UNL1        0.0937
      5 C         138.4203  139.5300  164.4991 C.3     1  UNL1        0.0216
      6 C         139.3553  140.3796  163.6903 C.3     1  UNL1        0.0042
      7 C         140.3886  141.2216  164.3783 C.3     1  UNL1        0.0216
      8 C         140.4868  141.2140  165.8751 C.3     1  UNL1        0.0937
      9 C         138.4823  139.6943  162.6812 C.3     1  UNL1        0.0092
     10 C         139.2164  140.3902  161.5735 C.3     1  UNL1        0.0767
     11 C         140.0894  141.0755  162.5826 C.3     1  UNL1        0.0092
     12 C         139.1182  140.3978  160.0768 C.2     1  UNL1        0.2252
     13 O         138.0997  141.2636  159.3963 O.2     1  UNL1       -0.2749
     14 N         140.0384  139.5394  159.2605 N.am    1  UNL1       -0.2767
     15 C         141.0569  138.6736  159.9409 C.3     1  UNL1        0.1107
     16 C         141.9771  137.8152  159.1245 C.3     1  UNL1        0.0939
     17 N         141.8789  137.8227  157.6278 N.3     1  UNL1       -0.2711
     18 C         140.8604  138.6886  156.9474 C.3     1  UNL1        0.0939
     19 C         139.9402  139.5469  157.7637 C.3     1  UNL1        0.1107
     20 C         142.7991  136.9644  156.8115 C.3     1  UNL1        0.0576
     21 C         143.1094  135.4979  156.7542 C.3     1  UNL1        0.0160
     22 C         144.1006  135.7505  155.6570 C.3     1  UNL1        0.0028
     23 C         143.7903  137.2169  155.7143 C.3     1  UNL1        0.0160
     24 C         140.6833  141.1990  168.8686 C.ar    1  UNL1        0.0536
     25 C         140.3538  142.6033  169.2800 C.ar    1  UNL1        0.0045
     26 C         141.3871  143.4453  169.9680 C.ar    1  UNL1        0.0001
     27 C         142.7499  142.8830  170.2447 C.ar    1  UNL1        0.0000
     28 C         143.0794  141.4786  169.8333 C.ar    1  UNL1        0.0001
     29 C         142.0461  140.6366  169.1453 C.ar    1  UNL1        0.0045
@<TRIPOS>BOND
     1     1     2    2
     2     2    24    1
     3    24    25   ar
     4    25    26   ar
     5    26    27   ar
     6    27    28   ar
     7    28    29   ar
     8     2     3   am
     9     3     4    1
    10     4     5    1
    11     5     6    1
    12     6     7    1
    13     7     8    1
    14     6     9    1
    15     9    10    1
    16    10    12    1
    17    12    13    2
    18    12    14   am
    19    14    15    1
    20    15    16    1
    21    16    17    1
    22    17    20    1
    23    20    21    1
    24    21    22    1
    25    22    23    1
    26    17    18    1
    27    18    19    1
    28    10    11    1
    29    29    24   ar
    30     8     3    1
    31    19    14    1
    32    11     6    1
    33    23    20    1
@<TRIPOS>MOLECULE
*****
 29 33 0 0 0
SMALL
GASTEIGER

@<TRIPOS>ATOM
      1 O         143.3266  138.3908  168.7010 O.2     1  UNL1       -0.2699
      2 C         142.6209  139.5255  168.0195 C.2     1  UNL1        0.2490
      3 N         142.8672  139.7965  166.5648 N.am    1  UNL1       -0.2761
      4 C         143.8192  138.9328  165.7917 C.3     1  UNL1        0.0937
      5 C         144.0655  139.2038  164.3371 C.3     1  UNL1        0.0216
      6 C         143.3598  140.3385  163.6557 C.3     1  UNL1        0.0042
      7 C         142.4078  141.2022  164.4288 C.3     1  UNL1        0.0216
      8 C         142.1615  140.9312  165.8833 C.3     1  UNL1        0.0937
      9 C         144.2107  139.7143  162.5897 C.3     1  UNL1        0.0092
     10 C         143.7081  140.7218  161.5984 C.3     1  UNL1        0.0767
     11 C         142.8572  141.3460  162.6644 C.3     1  UNL1        0.0092
     12 C         143.9544  140.9928  160.1439 C.2     1  UNL1        0.2252
     13 O         144.5173  142.3144  159.7120 O.2     1  UNL1       -0.2749
     14 N         143.6378  139.9422  159.1212 N.am    1  UNL1       -0.2767
     15 C         143.0749  138.6206  159.5530 C.3     1  UNL1        0.1107
     16 C         142.7583  137.5700  158.5302 C.3     1  UNL1        0.0939
     17 N         143.0046  137.8410  157.0757 N.3     1  UNL1       -0.2711
     18 C         143.5675  139.1626  156.6438 C.3     1  UNL1        0.0939
     19 C         143.8841  140.2132  157.6665 C.3     1  UNL1        0.1107
     20 C         142.6880  136.7904  156.0530 C.3     1  UNL1        0.0576
     21 C         143.5008  135.8939  155.1666 C.3     1  UNL1        0.0160
     22 C         142.2402  135.3046  154.6065 C.3     1  UNL1        0.0028
     23 C         141.4274  136.2011  155.4929 C.3     1  UNL1        0.0160
     24 C         141.6689  140.3892  168.7926 C.ar    1  UNL1        0.0536
     25 C         140.2411  139.9632  168.9656 C.ar    1  UNL1        0.0045
     26 C         139.2892  140.8270  169.7387 C.ar    1  UNL1        0.0001
     27 C         139.7650  142.1167  170.3388 C.ar    1  UNL1        0.0000
     28 C         141.1928  142.5427  170.1659 C.ar    1  UNL1        0.0001
     29 C         142.1448  141.6790  169.3928 C.ar    1  UNL1        0.0045
@<TRIPOS>BOND
     1     1     2    2
     2     2    24    1
     3    24    25   ar
     4    25    26   ar
     5    26    27   ar
     6    27    28   ar
     7    28    29   ar
     8     2     3   am
     9     3     4    1
    10     4     5    1
    11     5     6    1
    12     6     7    1
    13     7     8    1
    14     6     9    1
    15     9    10    1
    16    10    12    1
    17    12    13    2
    18    12    14   am
    19    14    15    1
    20    15    16    1
    21    16    17    1
    22    17    20    1
    23    20    21    1
    24    21    22    1
    25    22    23    1
    26    17    18    1
    27    18    19    1
    28    10    11    1
    29    29    24   ar
    30     8     3    1
    31    19    14    1
    32    11     6    1
    33    23    20    1
@<TRIPOS>MOLECULE
*****
 29 33 0 0 0
SMALL
GASTEIGER

@<TRIPOS>ATOM
      1 O         138.4147  139.0773  167.7860 O.2     1  UNL1       -0.2699
      2 C         139.4435  140.1684  167.7543 C.2     1  UNL1        0.2490
      3 N         139.5573  141.0572  166.5514 N.am    1  UNL1       -0.2761
      4 C         138.6423  140.8550  165.3802 C.3     1  UNL1        0.0937
      5 C         138.7561  141.7438  164.1773 C.3     1  UNL1        0.0216
      6 C         139.7850  142.8349  164.1456 C.3     1  UNL1        0.0042
      7 C         140.7000  143.0371  165.3168 C.3     1  UNL1        0.0216
      8 C         140.5862  142.1483  166.5197 C.3     1  UNL1        0.0937
      9 C         139.0719  142.9354  162.8298 C.3     1  UNL1        0.0092
     10 C         139.9459  144.0919  162.4443 C.3     1  UNL1        0.0767
     11 C         140.6590  143.9914  163.7601 C.3     1  UNL1        0.0092
     12 C         140.0598  144.9807  161.2414 C.2     1  UNL1        0.2252
     13 O         139.3505  146.3022  161.2155 O.2     1  UNL1       -0.2749
     14 N         140.8829  144.5481  160.0645 N.am    1  UNL1       -0.2767
     15 C         141.5921  143.2266  160.0904 C.3     1  UNL1        0.1107
     16 C         142.4152  142.7940  158.9133 C.3     1  UNL1        0.0939
     17 N         142.5291  143.6828  157.7104 N.3     1  UNL1       -0.2711
     18 C         141.8198  145.0043  157.6845 C.3     1  UNL1        0.0939
     19 C         140.9967  145.4369  158.8615 C.3     1  UNL1        0.1107
     20 C         143.3522  143.2502  156.5335 C.3     1  UNL1        0.0576
     21 C         143.3170  143.5191  155.0582 C.3     1  UNL1        0.0160
     22 C         144.5163  142.6383  154.8689 C.3     1  UNL1        0.0028
     23 C         144.5515  142.3694  156.3442 C.3     1  UNL1        0.0160
     24 C         140.3586  140.3706  168.9255 C.ar    1  UNL1        0.0536
     25 C         139.9720  141.3149  170.0250 C.ar    1  UNL1        0.0045
     26 C         140.8871  141.5171  171.1963 C.ar    1  UNL1        0.0001
     27 C         142.1887  140.7751  171.2680 C.ar    1  UNL1        0.0000
     28 C         142.5753  139.8308  170.1685 C.ar    1  UNL1        0.0001
     29 C         141.6602  139.6285  168.9973 C.ar    1  UNL1        0.0045
@<TRIPOS>BOND
     1     1     2    2
     2     2    24    1
     3    24    25   ar
     4    25    26   ar
     5    26    27   ar
     6    27    28   ar
     7    28    29   ar
     8     2     3   am
     9     3     4    1
    10     4     5    1
    11     5     6    1
    12     6     7    1
    13     7     8    1
    14     6     9    1
    15     9    10    1
    16    10    12    1
    17    12    13    2
    18    12    14   am
    19    14    15    1
    20    15    16    1
    21    16    17    1
    22    17    20    1
    23    20    21    1
    24    21    22    1
    25    22    23    1
    26    17    18    1
    27    18    19    1
    28    10    11    1
    29    29    24   ar
    30     8     3    1
    31    19    14    1
    32    11     6    1
    33    23    20    1
@<TRIPOS>MOLECULE
*****
 29 33 0 0 0
SMALL
GASTEIGER

@<TRIPOS>ATOM
      1 O         138.5956  139.5042  169.0156 O.2     1  UNL1       -0.2699
      2 C         139.6923  140.1917  168.2575 C.2     1  UNL1        0.2490
      3 N         139.8896  139.9045  166.7985 N.am    1  UNL1       -0.2761
      4 C         138.9903  138.9298  166.0976 C.3     1  UNL1        0.0937
      5 C         139.1876  138.6426  164.6387 C.3     1  UNL1        0.0216
      6 C         140.2843  139.3301  163.8806 C.3     1  UNL1        0.0042
      7 C         141.1836  140.3048  164.5814 C.3     1  UNL1        0.0216
      8 C         140.9863  140.5920  166.0404 C.3     1  UNL1        0.0937
      9 C         139.6090  138.4485  162.8723 C.3     1  UNL1        0.0092
     10 C         140.5634  138.9239  161.8172 C.3     1  UNL1        0.0767
     11 C         141.2387  139.8056  162.8255 C.3     1  UNL1        0.0092
     12 C         140.7607  138.6367  160.3583 C.2     1  UNL1        0.2252
     13 O         141.9086  137.7810  159.9109 O.2     1  UNL1       -0.2749
     14 N         139.8102  139.2053  159.3468 N.am    1  UNL1       -0.2767
     15 C         138.6623  140.0610  159.7942 C.3     1  UNL1        0.1107
     16 C         137.7118  140.6295  158.7825 C.3     1  UNL1        0.0939
     17 N         137.9091  140.3423  157.3236 N.3     1  UNL1       -0.2711
     18 C         139.0570  139.4866  156.8762 C.3     1  UNL1        0.0939
     19 C         140.0075  138.9181  157.8877 C.3     1  UNL1        0.1107
     20 C         136.9586  140.9108  156.3121 C.3     1  UNL1        0.0576
     21 C         137.0738  141.8889  155.1806 C.3     1  UNL1        0.0160
     22 C         135.6142  141.7149  154.8815 C.3     1  UNL1        0.0028
     23 C         135.4991  140.7368  156.0129 C.3     1  UNL1        0.0160
     24 C         140.5916  141.1664  168.9583 C.ar    1  UNL1        0.0536
     25 C         141.9230  140.7157  169.4819 C.ar    1  UNL1        0.0045
     26 C         142.8224  141.6904  170.1828 C.ar    1  UNL1        0.0001
     27 C         142.3902  143.1158  170.3600 C.ar    1  UNL1        0.0000
     28 C         141.0588  143.5666  169.8364 C.ar    1  UNL1        0.0001
     29 C         140.1595  142.5919  169.1356 C.ar    1  UNL1        0.0045
@<TRIPOS>BOND
     1     1     2    2
     2     2    24    1
     3    24    25   ar
     4    25    26   ar
     5    26    27   ar
     6    27    28   ar
     7    28    29   ar
     8     2     3   am
     9     3     4    1
    10     4     5    1
    11     5     6    1
    12     6     7    1
    13     7     8    1
    14     6     9    1
    15     9    10    1
    16    10    12    1
    17    12    13    2
    18    12    14   am
    19    14    15    1
    20    15    16    1
    21    16    17    1
    22    17    20    1
    23    20    21    1
    24    21    22    1
    25    22    23    1
    26    17    18    1
    27    18    19    1
    28    10    11    1
    29    29    24   ar
    30     8     3    1
    31    19    14    1
    32    11     6    1
    33    23    20    1
@<TRIPOS>MOLECULE
*****
 29 33 0 0 0
SMALL
GASTEIGER

@<TRIPOS>ATOM
      1 O         138.5609  139.5176  168.9663 O.2     1  UNL1       -0.2699
      2 C         139.6157  140.2226  168.1660 C.2     1  UNL1        0.2490
      3 N         139.5991  140.1428  166.6681 N.am    1  UNL1       -0.2761
      4 C         138.5277  139.3582  165.9707 C.3     1  UNL1        0.0937
      5 C         138.5111  139.2785  164.4729 C.3     1  UNL1        0.0216
      6 C         139.5659  139.9834  163.6726 C.3     1  UNL1        0.0042
      7 C         140.6373  140.7681  164.3701 C.3     1  UNL1        0.0216
      8 C         140.6539  140.8478  165.8678 C.3     1  UNL1        0.0937
      9 C         138.6862  139.3190  162.6555 C.3     1  UNL1        0.0092
     10 C         139.5425  139.8707  161.5543 C.3     1  UNL1        0.0767
     11 C         140.4222  140.5352  162.5715 C.3     1  UNL1        0.0092
     12 C         139.5259  139.7910  160.0566 C.2     1  UNL1        0.2252
     13 O         139.4828  138.4544  159.3771 O.2     1  UNL1       -0.2749
     14 N         139.5524  141.0478  159.2383 N.am    1  UNL1       -0.2767
     15 C         139.5955  142.3844  159.9179 C.3     1  UNL1        0.1107
     16 C         139.6220  143.6413  159.0995 C.3     1  UNL1        0.0939
     17 N         139.6054  143.5616  157.6018 N.3     1  UNL1       -0.2711
     18 C         139.5623  142.2250  156.9223 C.3     1  UNL1        0.0939
     19 C         139.5358  140.9682  157.7405 C.3     1  UNL1        0.1107
     20 C         139.6319  144.8185  156.7836 C.3     1  UNL1        0.0576
     21 C         138.9906  145.2642  155.5029 C.3     1  UNL1        0.0160
     22 C         139.6695  146.5961  155.6264 C.3     1  UNL1        0.0028
     23 C         140.3108  146.1503  156.9070 C.3     1  UNL1        0.0160
     24 C         140.6870  141.0072  168.8634 C.ar    1  UNL1        0.0536
     25 C         140.4453  142.4400  169.2359 C.ar    1  UNL1        0.0045
     26 C         141.5168  143.2246  169.9333 C.ar    1  UNL1        0.0001
     27 C         142.8299  142.5764  170.2584 C.ar    1  UNL1        0.0000
     28 C         143.0716  141.1437  169.8859 C.ar    1  UNL1        0.0001
     29 C         142.0002  140.3590  169.1885 C.ar    1  UNL1        0.0045
@<TRIPOS>BOND
     1     1     2    2
     2     2    24    1
     3    24    25   ar
     4    25    26   ar
     5    26    27   ar
     6    27    28   ar
     7    28    29   ar
     8     2     3   am
     9     3     4    1
    10     4     5    1
    11     5     6    1
    12     6     7    1
    13     7     8    1
    14     6     9    1
    15     9    10    1
    16    10    12    1
    17    12    13    2
    18    12    14   am
    19    14    15    1
    20    15    16    1
    21    16    17    1
    22    17    20    1
    23    20    21    1
    24    21    22    1
    25    22    23    1
    26    17    18    1
    27    18    19    1
    28    10    11    1
    29    29    24   ar
    30     8     3    1
    31    19    14    1
    32    11     6    1
    33    23    20    1
@<TRIPOS>MOLECULE
*****
 29 33 0 0 0
SMALL
GASTEIGER

@<TRIPOS>ATOM
      1 O         136.7533  141.5805  163.2561 O.2     1  UNL1       -0.2699
      2 C         138.0266  140.8202  163.4814 C.2     1  UNL1        0.2490
      3 N         138.8034  140.2947  162.3107 N.am    1  UNL1       -0.2761
      4 C         138.3070  140.5295  160.9149 C.3     1  UNL1        0.0937
      5 C         139.0838  140.0040  159.7443 C.3     1  UNL1        0.0216
      6 C         140.3571  139.2437  159.9695 C.3     1  UNL1        0.0042
      7 C         140.8535  139.0089  161.3653 C.3     1  UNL1        0.0216
      8 C         140.0767  139.5344  162.5359 C.3     1  UNL1        0.0937
      9 C         140.1839  139.2783  158.4799 C.3     1  UNL1        0.0092
     10 C         141.4557  138.5005  158.3139 C.3     1  UNL1        0.0767
     11 C         141.6289  138.4658  159.8035 C.3     1  UNL1        0.0092
     12 C         142.2326  137.9749  157.1433 C.2     1  UNL1        0.2252
     13 O         141.8700  136.6525  156.5354 O.2     1  UNL1       -0.2749
     14 N         143.3720  138.7719  156.5807 N.am    1  UNL1       -0.2767
     15 C         143.7345  140.0943  157.1887 C.3     1  UNL1        0.1107
     16 C         144.8740  140.8913  156.6260 C.3     1  UNL1        0.0939
     17 N         145.6508  140.3658  155.4554 N.3     1  UNL1       -0.2711
     18 C         145.2883  139.0433  154.8475 C.3     1  UNL1        0.0939
     19 C         144.1489  138.2464  155.4101 C.3     1  UNL1        0.1107
     20 C         146.7903  141.1627  154.8928 C.3     1  UNL1        0.0576
     21 C         147.1410  141.7007  153.5372 C.3     1  UNL1        0.0160
     22 C         148.4017  142.2899  154.0971 C.3     1  UNL1        0.0028
     23 C         148.0510  141.7519  155.4527 C.3     1  UNL1        0.0160
     24 C         138.5230  140.5855  164.8772 C.ar    1  UNL1        0.0536
     25 C         138.0799  139.3700  165.6364 C.ar    1  UNL1        0.0045
     26 C         138.5764  139.1353  167.0323 C.ar    1  UNL1        0.0001
     27 C         139.5160  140.1159  167.6689 C.ar    1  UNL1        0.0000
     28 C         139.9591  141.3314  166.9098 C.ar    1  UNL1        0.0001
     29 C         139.4627  141.5661  165.5139 C.ar    1  UNL1        0.0045
@<TRIPOS>BOND
     1     1     2    2
     2     2    24    1
     3    24    25   ar
     4    25    26   ar
     5    26    27   ar
     6    27    28   ar
     7    28    29   ar
     8     2     3   am
     9     3     4    1
    10     4     5    1
    11     5     6    1
    12     6     7    1
    13     7     8    1
    14     6     9    1
    15     9    10    1
    16    10    12    1
    17    12    13    2
    18    12    14   am
    19    14    15    1
    20    15    16    1
    21    16    17    1
    22    17    20    1
    23    20    21    1
    24    21    22    1
    25    22    23    1
    26    17    18    1
    27    18    19    1
    28    10    11    1
    29    29    24   ar
    30     8     3    1
    31    19    14    1
    32    11     6    1
    33    23    20    1
@<TRIPOS>MOLECULE
*****
 29 33 0 0 0
SMALL
GASTEIGER

@<TRIPOS>ATOM
      1 O         140.1904  139.5341  166.9445 O.2     1  UNL1       -0.2699
      2 C         141.0178  140.7679  166.7365 C.2     1  UNL1        0.2490
      3 N         141.4325  141.1682  165.3516 N.am    1  UNL1       -0.2761
      4 C         141.0197  140.3348  164.1748 C.3     1  UNL1        0.0937
      5 C         141.4344  140.7351  162.7900 C.3     1  UNL1        0.0216
      6 C         142.2618  141.9688  162.5820 C.3     1  UNL1        0.0042
      7 C         142.6746  142.8023  163.7589 C.3     1  UNL1        0.0216
      8 C         142.2599  142.4019  165.1437 C.3     1  UNL1        0.0937
      9 C         142.0488  141.4080  161.2072 C.3     1  UNL1        0.0092
     10 C         142.8483  142.5350  160.6235 C.3     1  UNL1        0.0767
     11 C         143.0613  143.0958  161.9983 C.3     1  UNL1        0.0092
     12 C         143.2630  142.9353  159.2387 C.2     1  UNL1        0.2252
     13 O         144.4930  142.3382  158.6220 O.2     1  UNL1       -0.2749
     14 N         142.4476  143.9328  158.4706 N.am    1  UNL1       -0.2767
     15 C         141.2175  144.5300  159.0872 C.3     1  UNL1        0.1107
     16 C         140.4021  145.5276  158.3190 C.3     1  UNL1        0.0939
     17 N         140.8168  145.9279  156.9342 N.3     1  UNL1       -0.2711
     18 C         142.0468  145.3307  156.3175 C.3     1  UNL1        0.0939
     19 C         142.8622  144.3332  157.0857 C.3     1  UNL1        0.1107
     20 C         140.0014  146.9254  156.1661 C.3     1  UNL1        0.0576
     21 C         138.8853  147.8688  156.5046 C.3     1  UNL1        0.0160
     22 C         138.8482  148.3362  155.0797 C.3     1  UNL1        0.0028
     23 C         139.9642  147.3928  154.7412 C.3     1  UNL1        0.0160
     24 C         141.4305  141.6013  167.9134 C.ar    1  UNL1        0.0536
     25 C         140.4598  142.5671  168.5258 C.ar    1  UNL1        0.0045
     26 C         140.8726  143.4005  169.7027 C.ar    1  UNL1        0.0001
     27 C         142.2561  143.2682  170.2671 C.ar    1  UNL1        0.0000
     28 C         143.2267  142.3024  169.6547 C.ar    1  UNL1        0.0001
     29 C         142.8140  141.4690  168.4778 C.ar    1  UNL1        0.0045
@<TRIPOS>BOND
     1     1     2    2
     2     2    24    1
     3    24    25   ar
     4    25    26   ar
     5    26    27   ar
     6    27    28   ar
     7    28    29   ar
     8     2     3   am
     9     3     4    1
    10     4     5    1
    11     5     6    1
    12     6     7    1
    13     7     8    1
    14     6     9    1
    15     9    10    1
    16    10    12    1
    17    12    13    2
    18    12    14   am
    19    14    15    1
    20    15    16    1
    21    16    17    1
    22    17    20    1
    23    20    21    1
    24    21    22    1
    25    22    23    1
    26    17    18    1
    27    18    19    1
    28    10    11    1
    29    29    24   ar
    30     8     3    1
    31    19    14    1
    32    11     6    1
    33    23    20    1
@<TRIPOS>MOLECULE
*****
 29 33 0 0 0
SMALL
GASTEIGER

@<TRIPOS>ATOM
      1 O         142.6863  139.2955  167.0048 O.2     1  UNL1       -0.2699
      2 C         141.4995  140.1882  166.7934 C.2     1  UNL1        0.2490
      3 N         140.9045  140.3331  165.4241 N.am    1  UNL1       -0.2761
      4 C         141.4962  139.5853  164.2662 C.3     1  UNL1        0.0937
      5 C         140.9011  139.7302  162.8970 C.3     1  UNL1        0.0216
      6 C         139.7143  140.6229  162.6856 C.3     1  UNL1        0.0042
      7 C         139.1226  141.3707  163.8435 C.3     1  UNL1        0.0216
      8 C         139.7177  141.2258  165.2127 C.3     1  UNL1        0.0937
      9 C         140.0196  140.0557  161.3310 C.3     1  UNL1        0.0092
     10 C         138.8727  140.8278  160.7491 C.3     1  UNL1        0.0767
     11 C         138.5675  141.3951  162.1037 C.3     1  UNL1        0.0092
     12 C         138.2777  140.9728  159.3799 C.2     1  UNL1        0.2252
     13 O         137.3328  139.9309  158.8586 O.2     1  UNL1       -0.2749
     14 N         138.6274  142.1596  158.5319 N.am    1  UNL1       -0.2767
     15 C         139.5723  143.2015  159.0532 C.3     1  UNL1        0.1107
     16 C         139.9220  144.3883  158.2051 C.3     1  UNL1        0.0939
     17 N         139.3270  144.5333  156.8359 N.3     1  UNL1       -0.2711
     18 C         138.3821  143.4914  156.3146 C.3     1  UNL1        0.0939
     19 C         138.0323  142.3046  157.1626 C.3     1  UNL1        0.1107
     20 C         139.6767  145.7201  155.9880 C.3     1  UNL1        0.0576
     21 C         140.3607  145.9156  154.6673 C.3     1  UNL1        0.0160
     22 C         140.1714  147.3986  154.7887 C.3     1  UNL1        0.0028
     23 C         139.4874  147.2031  156.1093 C.3     1  UNL1        0.0160
     24 C         140.9079  140.9360  167.9513 C.ar    1  UNL1        0.0536
     25 C         141.3139  142.3560  168.2133 C.ar    1  UNL1        0.0045
     26 C         140.7222  143.1038  169.3712 C.ar    1  UNL1        0.0001
     27 C         139.7244  142.4316  170.2670 C.ar    1  UNL1        0.0000
     28 C         139.3184  141.0115  170.0050 C.ar    1  UNL1        0.0001
     29 C         139.9101  140.2637  168.8472 C.ar    1  UNL1        0.0045
@<TRIPOS>BOND
     1     1     2    2
     2     2    24    1
     3    24    25   ar
     4    25    26   ar
     5    26    27   ar
     6    27    28   ar
     7    28    29   ar
     8     2     3   am
     9     3     4    1
    10     4     5    1
    11     5     6    1
    12     6     7    1
    13     7     8    1
    14     6     9    1
    15     9    10    1
    16    10    12    1
    17    12    13    2
    18    12    14   am
    19    14    15    1
    20    15    16    1
    21    16    17    1
    22    17    20    1
    23    20    21    1
    24    21    22    1
    25    22    23    1
    26    17    18    1
    27    18    19    1
    28    10    11    1
    29    29    24   ar
    30     8     3    1
    31    19    14    1
    32    11     6    1
    33    23    20    1
@<TRIPOS>MOLECULE
*****
 29 33 0 0 0
SMALL
GASTEIGER

@<TRIPOS>ATOM
      1 O         143.2127  138.7170  168.5045 O.2     1  UNL1       -0.2699
      2 C         142.2280  139.6228  167.8263 C.2     1  UNL1        0.2490
      3 N         141.9732  139.4857  166.3544 N.am    1  UNL1       -0.2761
      4 C         142.7031  138.4429  165.5608 C.3     1  UNL1        0.0937
      5 C         142.4483  138.3059  164.0890 C.3     1  UNL1        0.0216
      6 C         141.4636  139.2116  163.4108 C.3     1  UNL1        0.0042
      7 C         140.7337  140.2544  164.2044 C.3     1  UNL1        0.0216
      8 C         140.9885  140.3914  165.6762 C.3     1  UNL1        0.0937
      9 C         141.9834  138.3193  162.3229 C.3     1  UNL1        0.0092
     10 C         141.1033  139.0178  161.3292 C.3     1  UNL1        0.0767
     11 C         140.5834  139.9102  162.4171 C.3     1  UNL1        0.0092
     12 C         140.8484  138.8808  159.8574 C.2     1  UNL1        0.2252
     13 O         139.5587  138.2888  159.3714 O.2     1  UNL1       -0.2749
     14 N         141.8834  139.3358  158.8716 N.am    1  UNL1       -0.2767
     15 C         143.1731  139.9278  159.3575 C.3     1  UNL1        0.1107
     16 C         144.2080  140.3827  158.3716 C.3     1  UNL1        0.0939
     17 N         143.9532  140.2457  156.8998 N.3     1  UNL1       -0.2711
     18 C         142.6635  139.6537  156.4138 C.3     1  UNL1        0.0939
     19 C         141.6286  139.1987  157.3997 C.3     1  UNL1        0.1107
     20 C         144.9881  140.7007  155.9140 C.3     1  UNL1        0.0576
     21 C         146.0708  141.7389  155.9158 C.3     1  UNL1        0.0160
     22 C         146.4518  141.3441  154.5197 C.3     1  UNL1        0.0028
     23 C         145.3691  140.3059  154.5179 C.3     1  UNL1        0.0160
     24 C         141.4981  140.6655  168.6198 C.ar    1  UNL1        0.0536
     25 C         142.0944  142.0311  168.7916 C.ar    1  UNL1        0.0045
     26 C         141.3644  143.0739  169.5852 C.ar    1  UNL1        0.0001
     27 C         140.0381  142.7510  170.2071 C.ar    1  UNL1        0.0000
     28 C         139.4418  141.3854  170.0353 C.ar    1  UNL1        0.0001
     29 C         140.1717  140.3427  169.2417 C.ar    1  UNL1        0.0045
@<TRIPOS>BOND
     1     1     2    2
     2     2    24    1
     3    24    25   ar
     4    25    26   ar
     5    26    27   ar
     6    27    28   ar
     7    28    29   ar
     8     2     3   am
     9     3     4    1
    10     4     5    1
    11     5     6    1
    12     6     7    1
    13     7     8    1
    14     6     9    1
    15     9    10    1
    16    10    12    1
    17    12    13    2
    18    12    14   am
    19    14    15    1
    20    15    16    1
    21    16    17    1
    22    17    20    1
    23    20    21    1
    24    21    22    1
    25    22    23    1
    26    17    18    1
    27    18    19    1
    28    10    11    1
    29    29    24   ar
    30     8     3    1
    31    19    14    1
    32    11     6    1
    33    23    20    1
