@<TRIPOS>MOLECULE
*****
 34 37 0 0 0
SMALL
GASTEIGER

@<TRIPOS>ATOM
      1 O         144.8086  139.6352  163.6718 O.3     1  UNL1       -0.4756
      2 C         142.2957  139.5909  163.0134 C.ar    1  UNL1        0.0489
      3 C         143.3716  139.4192  164.0443 C.ar    1  UNL1        0.1375
      4 C         143.0108  139.0315  165.4476 C.ar    1  UNL1        0.0368
      5 C         141.5738  138.8155  165.8201 C.ar    1  UNL1        0.0078
      6 C         140.4979  138.9873  164.7892 C.ar    1  UNL1        0.0619
      7 C         139.0066  138.8432  164.8614 C.ar    1  UNL1        0.1940
      8 N         138.4458  139.1418  163.5026 N.ar    1  UNL1       -0.0730
      9 O         139.5905  139.4705  162.5906 O.2     1  UNL1       -0.3537
     10 C         140.8588  139.3750  163.3858 C.ar    1  UNL1        0.1756
     11 C         138.2150  138.4666  166.0786 C.3     1  UNL1        0.4381
     12 F         137.4235  138.0899  167.2958 F       1  UNL1       -0.1643
     13 F         138.3955  137.0149  165.7468 F       1  UNL1       -0.1643
     14 F         138.0345  139.9182  166.4104 F       1  UNL1       -0.1643
     15 C         142.6566  139.9786  161.6100 C.3     1  UNL1        0.0326
     16 C         143.2842  137.6198  160.7201 C.3     1  UNL1        0.0004
     17 C         142.6255  138.9521  160.5168 C.3     1  UNL1        0.0049
     18 C         145.4756  140.9421  163.9829 C.3     1  UNL1        0.2072
     19 C         145.1952  142.1477  163.1357 C.3     1  UNL1        0.0692
     20 C         144.4182  143.2987  163.7029 C.3     1  UNL1        0.1020
     21 N         142.9948  143.1029  164.1337 N.am    1  UNL1       -0.2585
     22 C         141.7834  143.2256  163.2576 C.2     1  UNL1        0.2338
     23 O         141.7828  143.5658  161.7967 O.2     1  UNL1       -0.2742
     24 C         140.5729  142.9484  164.0989 C.3     1  UNL1        0.1131
     25 C         141.0361  142.6544  165.4949 C.ar    1  UNL1        0.0004
     26 C         140.2883  142.3120  166.7493 C.ar    1  UNL1       -0.0065
     27 C         141.0373  142.0651  168.0254 C.ar    1  UNL1       -0.0168
     28 C         142.5341  142.1606  168.0469 C.ar    1  UNL1       -0.0026
     29 C         143.2819  142.5029  166.7925 C.ar    1  UNL1        0.0143
     30 C         142.5329  142.7498  165.5165 C.ar    1  UNL1        0.0503
     31 C         140.2895  141.7228  169.2798 C.3     1  UNL1        0.0679
     32 C         140.2847  142.6797  170.4349 C.2     1  UNL1        0.0547
     33 O         140.0778  144.1456  170.1936 O.co2   1  UNL1       -0.5488
     34 O         140.4867  142.1706  171.8313 O.co2   1  UNL1       -0.5488
@<TRIPOS>UNITY_ATOM_ATTR
33 1
charge -1
@<TRIPOS>BOND
     1    16    17    1
     2    17    15    1
     3    15     2    1
     4     2     3   ar
     5     3     1    1
     6     1    18    1
     7    18    19    1
     8    19    20    1
     9    20    21    1
    10    21    22   am
    11    22    23    2
    12    22    24    1
    13    24    25    1
    14    25    26   ar
    15    26    27   ar
    16    27    31    1
    17    31    32    1
    18    32    33   ar
    19    32    34   ar
    20    27    28   ar
    21    28    29   ar
    22    29    30   ar
    23     3     4   ar
    24     4     5   ar
    25     5     6   ar
    26     6     7   ar
    27     7    11    1
    28    11    12    1
    29    11    13    1
    30    11    14    1
    31     7     8   ar
    32     8     9   ar
    33     9    10   ar
    34    10     2   ar
    35    30    21    1
    36    10     6   ar
    37    30    25   ar
@<TRIPOS>MOLECULE
*****
 34 37 0 0 0
SMALL
GASTEIGER

@<TRIPOS>ATOM
      1 O         138.5721  138.0478  163.0758 O.3     1  UNL1       -0.4756
      2 C         138.0658  140.4884  162.3429 C.ar    1  UNL1        0.0489
      3 C         138.4681  139.5078  163.4042 C.ar    1  UNL1        0.1375
      4 C         138.7663  139.9870  164.7939 C.ar    1  UNL1        0.0368
      5 C         138.6623  141.4470  165.1223 C.ar    1  UNL1        0.0078
      6 C         138.2600  142.4276  164.0610 C.ar    1  UNL1        0.0619
      7 C         138.0742  143.9158  164.0880 C.ar    1  UNL1        0.1940
      8 N         137.6611  144.3563  162.7149 N.ar    1  UNL1       -0.0730
      9 O         137.5916  143.1403  161.8393 O.2     1  UNL1       -0.3537
     10 C         137.9618  141.9483  162.6712 C.ar    1  UNL1        0.1756
     11 C         138.2675  144.8070  165.2789 C.3     1  UNL1        0.4381
     12 F         138.4609  145.6982  166.4699 F       1  UNL1       -0.1643
     13 F         139.7374  144.8771  164.9879 F       1  UNL1       -0.1643
     14 F         136.7977  144.7369  165.5700 F       1  UNL1       -0.1643
     15 C         137.7675  140.0091  160.9532 C.3     1  UNL1        0.0326
     16 C         139.5411  138.8768  159.4293 C.3     1  UNL1        0.0004
     17 C         138.8155  140.1082  159.8845 C.3     1  UNL1        0.0049
     18 C         139.9126  137.4357  162.7961 C.3     1  UNL1        0.2072
     19 C         140.9168  137.2922  163.9011 C.3     1  UNL1        0.0692
     20 C         142.2286  138.0155  163.8212 C.3     1  UNL1        0.1020
     21 N         142.3432  139.4197  164.3359 N.am    1  UNL1       -0.2585
     22 C         142.7546  139.8201  165.7217 C.2     1  UNL1        0.2338
     23 O         143.1237  138.8865  166.8362 O.2     1  UNL1       -0.2742
     24 C         142.7321  141.3180  165.7974 C.3     1  UNL1        0.1131
     25 C         142.3068  141.8434  164.4583 C.ar    1  UNL1        0.0004
     26 C         142.1073  143.2386  163.9448 C.ar    1  UNL1       -0.0065
     27 C         141.6674  143.4605  162.5279 C.ar    1  UNL1       -0.0168
     28 C         141.4271  142.2873  161.6247 C.ar    1  UNL1       -0.0026
     29 C         141.6265  140.8922  162.1383 C.ar    1  UNL1        0.0143
     30 C         142.0664  140.6702  163.5551 C.ar    1  UNL1        0.0503
     31 C         141.4680  144.8557  162.0144 C.3     1  UNL1        0.0679
     32 C         141.0951  145.0804  160.5789 C.2     1  UNL1        0.0547
     33 O         139.6735  145.3886  160.2128 O.co2   1  UNL1       -0.5488
     34 O         142.1437  144.9969  159.5097 O.co2   1  UNL1       -0.5488
@<TRIPOS>UNITY_ATOM_ATTR
33 1
charge -1
@<TRIPOS>BOND
     1    16    17    1
     2    17    15    1
     3    15     2    1
     4     2     3   ar
     5     3     1    1
     6     1    18    1
     7    18    19    1
     8    19    20    1
     9    20    21    1
    10    21    22   am
    11    22    23    2
    12    22    24    1
    13    24    25    1
    14    25    26   ar
    15    26    27   ar
    16    27    31    1
    17    31    32    1
    18    32    33   ar
    19    32    34   ar
    20    27    28   ar
    21    28    29   ar
    22    29    30   ar
    23     3     4   ar
    24     4     5   ar
    25     5     6   ar
    26     6     7   ar
    27     7    11    1
    28    11    12    1
    29    11    13    1
    30    11    14    1
    31     7     8   ar
    32     8     9   ar
    33     9    10   ar
    34    10     2   ar
    35    30    21    1
    36    10     6   ar
    37    30    25   ar
@<TRIPOS>MOLECULE
*****
 34 37 0 0 0
SMALL
GASTEIGER

@<TRIPOS>ATOM
      1 O         138.2501  141.0685  161.5310 O.3     1  UNL1       -0.4756
      2 C         139.6014  141.9131  163.5830 C.ar    1  UNL1        0.0489
      3 C         139.5648  141.2943  162.2171 C.ar    1  UNL1        0.1375
      4 C         140.8428  140.9015  161.5372 C.ar    1  UNL1        0.0368
      5 C         142.1575  141.1273  162.2232 C.ar    1  UNL1        0.0078
      6 C         142.1941  141.7461  163.5891 C.ar    1  UNL1        0.0619
      7 C         143.3311  142.0885  164.5057 C.ar    1  UNL1        0.1940
      8 N         142.7557  142.6930  165.7521 N.ar    1  UNL1       -0.0730
      9 O         141.2631  142.7242  165.6058 O.2     1  UNL1       -0.3537
     10 C         140.9161  142.1390  164.2690 C.ar    1  UNL1        0.1756
     11 C         144.7876  141.8655  164.2252 C.3     1  UNL1        0.4381
     12 F         146.2442  141.6425  163.9446 F       1  UNL1       -0.1643
     13 F         144.6669  140.4545  164.7197 F       1  UNL1       -0.1643
     14 F         144.9084  143.2765  163.7307 F       1  UNL1       -0.1643
     15 C         138.3234  142.3060  164.2629 C.3     1  UNL1        0.0326
     16 C         138.4314  144.7236  165.2081 C.3     1  UNL1        0.0004
     17 C         137.8661  143.7342  164.2325 C.3     1  UNL1        0.0049
     18 C         137.5723  139.7340  161.6296 C.3     1  UNL1        0.2072
     19 C         138.3922  138.4800  161.7032 C.3     1  UNL1        0.0692
     20 C         138.6032  137.7982  163.0226 C.3     1  UNL1        0.1020
     21 N         139.8371  138.0847  163.8259 N.am    1  UNL1       -0.2585
     22 C         141.2473  137.7821  163.4142 C.2     1  UNL1        0.2338
     23 O         141.6713  137.1397  162.1268 O.2     1  UNL1       -0.2742
     24 C         142.1592  138.2346  164.5159 C.3     1  UNL1        0.1131
     25 C         141.3125  138.8169  165.6086 C.ar    1  UNL1        0.0004
     26 C         141.6629  139.4195  166.9368 C.ar    1  UNL1       -0.0065
     27 C         140.5781  139.9296  167.8386 C.ar    1  UNL1       -0.0168
     28 C         139.1429  139.8370  167.4122 C.ar    1  UNL1       -0.0026
     29 C         138.7925  139.2344  166.0840 C.ar    1  UNL1        0.0143
     30 C         139.8774  138.7243  165.1822 C.ar    1  UNL1        0.0503
     31 C         140.9285  140.5322  169.1668 C.3     1  UNL1        0.0679
     32 C         139.8692  140.7058  170.2145 C.2     1  UNL1        0.0547
     33 O         139.3671  139.5161  170.9777 O.co2   1  UNL1       -0.5488
     34 O         139.3120  142.0691  170.4990 O.co2   1  UNL1       -0.5488
@<TRIPOS>UNITY_ATOM_ATTR
33 1
charge -1
@<TRIPOS>BOND
     1    16    17    1
     2    17    15    1
     3    15     2    1
     4     2     3   ar
     5     3     1    1
     6     1    18    1
     7    18    19    1
     8    19    20    1
     9    20    21    1
    10    21    22   am
    11    22    23    2
    12    22    24    1
    13    24    25    1
    14    25    26   ar
    15    26    27   ar
    16    27    31    1
    17    31    32    1
    18    32    33   ar
    19    32    34   ar
    20    27    28   ar
    21    28    29   ar
    22    29    30   ar
    23     3     4   ar
    24     4     5   ar
    25     5     6   ar
    26     6     7   ar
    27     7    11    1
    28    11    12    1
    29    11    13    1
    30    11    14    1
    31     7     8   ar
    32     8     9   ar
    33     9    10   ar
    34    10     2   ar
    35    30    21    1
    36    10     6   ar
    37    30    25   ar
@<TRIPOS>MOLECULE
*****
 34 37 0 0 0
SMALL
GASTEIGER

@<TRIPOS>ATOM
      1 O         140.1956  138.4177  163.5008 O.3     1  UNL1       -0.4756
      2 C         139.7698  140.6505  164.7591 C.ar    1  UNL1        0.0489
      3 C         140.1055  139.9151  163.4956 C.ar    1  UNL1        0.1375
      4 C         140.3510  140.6769  162.2271 C.ar    1  UNL1        0.0368
      5 C         140.2608  142.1742  162.2220 C.ar    1  UNL1        0.0078
      6 C         139.9252  142.9096  163.4855 C.ar    1  UNL1        0.0619
      7 C         139.7672  144.3710  163.7844 C.ar    1  UNL1        0.1940
      8 N         139.4241  144.5123  165.2378 N.ar    1  UNL1       -0.0730
      9 O         139.3700  143.1383  165.8371 O.2     1  UNL1       -0.3537
     10 C         139.6797  142.1478  164.7541 C.ar    1  UNL1        0.1756
     11 C         139.9247  145.4939  162.8024 C.3     1  UNL1        0.4381
     12 F         140.0822  146.6168  161.8204 F       1  UNL1       -0.1643
     13 F         141.3769  145.6044  163.1616 F       1  UNL1       -0.1643
     14 F         138.4726  145.3834  162.4432 F       1  UNL1       -0.1643
     15 C         139.5244  139.8886  166.0277 C.3     1  UNL1        0.0326
     16 C         138.0167  137.7996  166.3636 C.3     1  UNL1        0.0004
     17 C         138.1751  139.2896  166.2937 C.3     1  UNL1        0.0049
     18 C         141.5285  137.7472  163.6549 C.3     1  UNL1        0.2072
     19 C         142.7201  138.2660  162.9059 C.3     1  UNL1        0.0692
     20 C         143.8407  138.9322  163.6479 C.3     1  UNL1        0.1020
     21 N         143.5956  140.2188  164.3790 N.am    1  UNL1       -0.2585
     22 C         143.6786  141.5964  163.7916 C.2     1  UNL1        0.2338
     23 O         144.0213  141.9294  162.3697 O.2     1  UNL1       -0.2742
     24 C         143.3587  142.5826  164.8755 C.3     1  UNL1        0.1131
     25 C         143.0779  141.8145  166.1329 C.ar    1  UNL1        0.0004
     26 C         142.7079  142.2566  167.5177 C.ar    1  UNL1       -0.0065
     27 C         142.4842  141.2377  168.5957 C.ar    1  UNL1       -0.0168
     28 C         142.6307  139.7768  168.2888 C.ar    1  UNL1       -0.0026
     29 C         143.0007  139.3346  166.9041 C.ar    1  UNL1        0.0143
     30 C         143.2244  140.3536  165.8261 C.ar    1  UNL1        0.0503
     31 C         142.1142  141.6798  169.9805 C.3     1  UNL1        0.0679
     32 C         142.1128  143.1394  170.3265 C.2     1  UNL1        0.0547
     33 O         143.3404  143.7726  170.9114 O.co2   1  UNL1       -0.5488
     34 O         140.8839  143.9656  170.0878 O.co2   1  UNL1       -0.5488
@<TRIPOS>UNITY_ATOM_ATTR
33 1
charge -1
@<TRIPOS>BOND
     1    16    17    1
     2    17    15    1
     3    15     2    1
     4     2     3   ar
     5     3     1    1
     6     1    18    1
     7    18    19    1
     8    19    20    1
     9    20    21    1
    10    21    22   am
    11    22    23    2
    12    22    24    1
    13    24    25    1
    14    25    26   ar
    15    26    27   ar
    16    27    31    1
    17    31    32    1
    18    32    33   ar
    19    32    34   ar
    20    27    28   ar
    21    28    29   ar
    22    29    30   ar
    23     3     4   ar
    24     4     5   ar
    25     5     6   ar
    26     6     7   ar
    27     7    11    1
    28    11    12    1
    29    11    13    1
    30    11    14    1
    31     7     8   ar
    32     8     9   ar
    33     9    10   ar
    34    10     2   ar
    35    30    21    1
    36    10     6   ar
    37    30    25   ar
@<TRIPOS>MOLECULE
*****
 34 37 0 0 0
SMALL
GASTEIGER

@<TRIPOS>ATOM
      1 O         140.7077  143.8572  161.3082 O.3     1  UNL1       -0.4756
      2 C         139.3158  142.5685  163.0835 C.ar    1  UNL1        0.0489
      3 C         140.4378  142.6050  162.0887 C.ar    1  UNL1        0.1375
      4 C         141.2899  141.3893  161.8744 C.ar    1  UNL1        0.0368
      5 C         141.0200  140.1371  162.6549 C.ar    1  UNL1        0.0078
      6 C         139.8980  140.1007  163.6497 C.ar    1  UNL1        0.0619
      7 C         139.3970  139.0174  164.5583 C.ar    1  UNL1        0.1940
      8 N         138.2353  139.5636  165.3342 N.ar    1  UNL1       -0.0730
      9 O         138.0183  140.9845  164.9051 O.2     1  UNL1       -0.3537
     10 C         139.0459  141.3164  163.8640 C.ar    1  UNL1        0.1756
     11 C         139.9591  137.6313  164.6712 C.3     1  UNL1        0.4381
     12 F         140.5212  136.2451  164.7841 F       1  UNL1       -0.1643
     13 F         138.7850  137.0930  163.9084 F       1  UNL1       -0.1643
     14 F         141.1332  138.1695  165.4340 F       1  UNL1       -0.1643
     15 C         138.4637  143.7843  163.2979 C.3     1  UNL1        0.0326
     16 C         138.4415  144.9372  165.6260 C.3     1  UNL1        0.0004
     17 C         138.9337  144.8782  164.2102 C.3     1  UNL1        0.0049
     18 C         141.9529  144.6511  161.5712 C.3     1  UNL1        0.2072
     19 C         142.4565  144.8132  162.9748 C.3     1  UNL1        0.0692
     20 C         143.7579  144.1878  163.3816 C.3     1  UNL1        0.1020
     21 N         143.7674  142.8499  164.0599 N.am    1  UNL1       -0.2585
     22 C         144.7387  141.7367  163.8008 C.2     1  UNL1        0.2338
     23 O         145.8712  141.7658  162.8177 O.2     1  UNL1       -0.2742
     24 C         144.3786  140.5893  164.6972 C.3     1  UNL1        0.1131
     25 C         143.1848  140.9933  165.5105 C.ar    1  UNL1        0.0004
     26 C         142.3928  140.2695  166.5588 C.ar    1  UNL1       -0.0065
     27 C         141.2230  140.9430  167.2132 C.ar    1  UNL1       -0.0168
     28 C         140.8452  142.3401  166.8194 C.ar    1  UNL1       -0.0026
     29 C         141.6372  143.0639  165.7710 C.ar    1  UNL1        0.0143
     30 C         142.8070  142.3905  165.1166 C.ar    1  UNL1        0.0503
     31 C         140.4311  140.2192  168.2616 C.3     1  UNL1        0.0679
     32 C         140.9086  140.2017  169.6834 C.2     1  UNL1        0.0547
     33 O         140.1224  139.4686  170.7296 O.co2   1  UNL1       -0.5488
     34 O         142.1722  140.9173  170.0590 O.co2   1  UNL1       -0.5488
@<TRIPOS>UNITY_ATOM_ATTR
33 1
charge -1
@<TRIPOS>BOND
     1    16    17    1
     2    17    15    1
     3    15     2    1
     4     2     3   ar
     5     3     1    1
     6     1    18    1
     7    18    19    1
     8    19    20    1
     9    20    21    1
    10    21    22   am
    11    22    23    2
    12    22    24    1
    13    24    25    1
    14    25    26   ar
    15    26    27   ar
    16    27    31    1
    17    31    32    1
    18    32    33   ar
    19    32    34   ar
    20    27    28   ar
    21    28    29   ar
    22    29    30   ar
    23     3     4   ar
    24     4     5   ar
    25     5     6   ar
    26     6     7   ar
    27     7    11    1
    28    11    12    1
    29    11    13    1
    30    11    14    1
    31     7     8   ar
    32     8     9   ar
    33     9    10   ar
    34    10     2   ar
    35    30    21    1
    36    10     6   ar
    37    30    25   ar
@<TRIPOS>MOLECULE
*****
 34 37 0 0 0
SMALL
GASTEIGER

@<TRIPOS>ATOM
      1 O         138.3832  143.3829  161.7729 O.3     1  UNL1       -0.4756
      2 C         139.0513  142.6083  164.1611 C.ar    1  UNL1        0.0489
      3 C         138.3851  142.3342  162.8454 C.ar    1  UNL1        0.1375
      4 C         137.7210  141.0115  162.6023 C.ar    1  UNL1        0.0368
      5 C         137.7229  139.9628  163.6748 C.ar    1  UNL1        0.0078
      6 C         138.3891  140.2369  164.9905 C.ar    1  UNL1        0.0619
      7 C         138.5507  139.4028  166.2267 C.ar    1  UNL1        0.1940
      8 N         139.3148  140.2101  167.2339 N.ar    1  UNL1       -0.0730
      9 O         139.6255  141.5431  166.6201 O.2     1  UNL1       -0.3537
     10 C         139.0533  141.5597  165.2336 C.ar    1  UNL1        0.1756
     11 C         138.0382  138.0066  166.4215 C.3     1  UNL1        0.4381
     12 F         137.5257  136.6104  166.6164 F       1  UNL1       -0.1643
     13 F         138.9761  137.5142  165.3595 F       1  UNL1       -0.1643
     14 F         137.1004  138.4991  167.4836 F       1  UNL1       -0.1643
     15 C         139.7156  143.9311  164.4042 C.3     1  UNL1        0.0326
     16 C         141.8671  145.0667  163.4926 C.3     1  UNL1        0.0004
     17 C         141.2112  144.0377  164.3651 C.3     1  UNL1        0.0049
     18 C         139.3898  143.3218  160.6625 C.3     1  UNL1        0.2072
     19 C         140.7049  142.6337  160.8794 C.3     1  UNL1        0.0692
     20 C         140.9278  141.2533  160.3359 C.3     1  UNL1        0.1020
     21 N         140.8723  140.0681  161.2536 N.am    1  UNL1       -0.2585
     22 C         140.1100  138.7994  161.0104 C.2     1  UNL1        0.2338
     23 O         139.2692  138.4931  159.8066 O.2     1  UNL1       -0.2742
     24 C         140.3362  137.8908  162.1822 C.3     1  UNL1        0.1131
     25 C         141.2383  138.5980  163.1498 C.ar    1  UNL1        0.0004
     26 C         141.8008  138.1904  164.4792 C.ar    1  UNL1       -0.0065
     27 C         142.6947  139.1286  165.2348 C.ar    1  UNL1       -0.0168
     28 C         143.0261  140.4742  164.6610 C.ar    1  UNL1       -0.0026
     29 C         142.4636  140.8818  163.3315 C.ar    1  UNL1        0.0143
     30 C         141.5696  139.9436  162.5759 C.ar    1  UNL1        0.0503
     31 C         143.2572  138.7210  166.5643 C.3     1  UNL1        0.0679
     32 C         142.8727  139.4732  167.8038 C.2     1  UNL1        0.0547
     33 O         142.8390  138.7694  169.1280 O.co2   1  UNL1       -0.5488
     34 O         142.5220  140.9290  167.7191 O.co2   1  UNL1       -0.5488
@<TRIPOS>UNITY_ATOM_ATTR
33 1
charge -1
@<TRIPOS>BOND
     1    16    17    1
     2    17    15    1
     3    15     2    1
     4     2     3   ar
     5     3     1    1
     6     1    18    1
     7    18    19    1
     8    19    20    1
     9    20    21    1
    10    21    22   am
    11    22    23    2
    12    22    24    1
    13    24    25    1
    14    25    26   ar
    15    26    27   ar
    16    27    31    1
    17    31    32    1
    18    32    33   ar
    19    32    34   ar
    20    27    28   ar
    21    28    29   ar
    22    29    30   ar
    23     3     4   ar
    24     4     5   ar
    25     5     6   ar
    26     6     7   ar
    27     7    11    1
    28    11    12    1
    29    11    13    1
    30    11    14    1
    31     7     8   ar
    32     8     9   ar
    33     9    10   ar
    34    10     2   ar
    35    30    21    1
    36    10     6   ar
    37    30    25   ar
@<TRIPOS>MOLECULE
*****
 34 37 0 0 0
SMALL
GASTEIGER

@<TRIPOS>ATOM
      1 O         138.8806  143.6353  161.4022 O.3     1  UNL1       -0.4756
      2 C         140.0911  141.5672  162.4060 C.ar    1  UNL1        0.0489
      3 C         138.8975  142.4740  162.3516 C.ar    1  UNL1        0.1375
      4 C         137.7209  142.2196  163.2463 C.ar    1  UNL1        0.0368
      5 C         137.7377  141.0582  164.1956 C.ar    1  UNL1        0.0078
      6 C         138.9313  140.1514  164.2501 C.ar    1  UNL1        0.0619
      7 C         139.2323  138.9372  165.0777 C.ar    1  UNL1        0.1940
      8 N         140.5951  138.4412  164.6944 N.ar    1  UNL1       -0.0730
      9 O         141.1363  139.3489  163.6299 O.2     1  UNL1       -0.3537
     10 C         140.1080  140.4059  163.3552 C.ar    1  UNL1        0.1756
     11 C         138.3292  138.3262  166.1078 C.3     1  UNL1        0.4381
     12 F         137.4261  137.7152  167.1379 F       1  UNL1       -0.1643
     13 F         138.3254  139.6178  166.8705 F       1  UNL1       -0.1643
     14 F         138.3330  137.0346  165.3451 F       1  UNL1       -0.1643
     15 C         141.2678  141.8216  161.5112 C.3     1  UNL1        0.0326
     16 C         140.5130  140.1426  159.6778 C.3     1  UNL1        0.0004
     17 C         141.2179  141.4072  160.0704 C.3     1  UNL1        0.0049
     18 C         139.4628  144.9533  161.8193 C.3     1  UNL1        0.2072
     19 C         139.9481  145.1476  163.2252 C.3     1  UNL1        0.0692
     20 C         141.4102  145.3499  163.4928 C.3     1  UNL1        0.1020
     21 N         142.2454  144.2095  163.9949 N.am    1  UNL1       -0.2585
     22 C         143.6182  143.8434  163.5140 C.2     1  UNL1        0.2338
     23 O         144.3970  144.5534  162.4466 O.2     1  UNL1       -0.2742
     24 C         144.0756  142.6427  164.2880 C.3     1  UNL1        0.1131
     25 C         142.9854  142.2667  165.2472 C.ar    1  UNL1        0.0004
     26 C         142.8765  141.1676  166.2622 C.ar    1  UNL1       -0.0065
     27 C         141.6365  141.0370  167.0961 C.ar    1  UNL1       -0.0168
     28 C         140.5054  142.0053  166.9150 C.ar    1  UNL1       -0.0026
     29 C         140.6142  143.1044  165.9000 C.ar    1  UNL1        0.0143
     30 C         141.8543  143.2351  165.0661 C.ar    1  UNL1        0.0503
     31 C         141.5276  139.9379  168.1111 C.3     1  UNL1        0.0679
     32 C         142.5564  139.8139  169.1956 C.2     1  UNL1        0.0547
     33 O         142.9333  138.4603  169.7207 O.co2   1  UNL1       -0.5488
     34 O         143.2084  141.0435  169.7550 O.co2   1  UNL1       -0.5488
@<TRIPOS>UNITY_ATOM_ATTR
33 1
charge -1
@<TRIPOS>BOND
     1    16    17    1
     2    17    15    1
     3    15     2    1
     4     2     3   ar
     5     3     1    1
     6     1    18    1
     7    18    19    1
     8    19    20    1
     9    20    21    1
    10    21    22   am
    11    22    23    2
    12    22    24    1
    13    24    25    1
    14    25    26   ar
    15    26    27   ar
    16    27    31    1
    17    31    32    1
    18    32    33   ar
    19    32    34   ar
    20    27    28   ar
    21    28    29   ar
    22    29    30   ar
    23     3     4   ar
    24     4     5   ar
    25     5     6   ar
    26     6     7   ar
    27     7    11    1
    28    11    12    1
    29    11    13    1
    30    11    14    1
    31     7     8   ar
    32     8     9   ar
    33     9    10   ar
    34    10     2   ar
    35    30    21    1
    36    10     6   ar
    37    30    25   ar
@<TRIPOS>MOLECULE
*****
 34 37 0 0 0
SMALL
GASTEIGER

@<TRIPOS>ATOM
      1 O         141.5694  141.5263  160.1656 O.3     1  UNL1       -0.4756
      2 C         142.1243  140.2847  162.3793 C.ar    1  UNL1        0.0489
      3 C         141.1295  140.9621  161.4841 C.ar    1  UNL1        0.1375
      4 C         139.6950  141.0755  161.9072 C.ar    1  UNL1        0.0368
      5 C         139.2551  140.5113  163.2257 C.ar    1  UNL1        0.0078
      6 C         140.2499  139.8339  164.1209 C.ar    1  UNL1        0.0619
      7 C         140.1112  139.1871  165.4672 C.ar    1  UNL1        0.1940
      8 N         141.4602  138.6741  165.8761 N.ar    1  UNL1       -0.0730
      9 O         142.4325  139.0037  164.7825 O.2     1  UNL1       -0.3537
     10 C         141.6845  139.7205  163.6977 C.ar    1  UNL1        0.1756
     11 C         138.8459  139.0734  166.2647 C.3     1  UNL1        0.4381
     12 F         137.5805  138.9597  167.0621 F       1  UNL1       -0.1643
     13 F         139.4328  139.9602  167.3225 F       1  UNL1       -0.1643
     14 F         138.2589  138.1867  165.2068 F       1  UNL1       -0.1643
     15 C         143.5589  140.1713  161.9561 C.3     1  UNL1        0.0326
     16 C         145.2083  142.1670  162.1720 C.3     1  UNL1        0.0004
     17 C         144.6259  140.8979  162.7200 C.3     1  UNL1        0.0049
     18 C         141.5658  143.0101  159.9461 C.3     1  UNL1        0.2072
     19 C         142.1591  143.9224  160.9784 C.3     1  UNL1        0.0692
     20 C         141.2788  144.8738  161.7334 C.3     1  UNL1        0.1020
     21 N         140.5697  144.4161  162.9734 N.am    1  UNL1       -0.2585
     22 C         139.1021  144.5529  163.2513 C.2     1  UNL1        0.2338
     23 O         138.0857  145.1716  162.3380 O.2     1  UNL1       -0.2742
     24 C         138.8292  143.9624  164.6029 C.3     1  UNL1        0.1131
     25 C         140.1282  143.4607  165.1603 C.ar    1  UNL1        0.0004
     26 C         140.4706  142.7847  166.4549 C.ar    1  UNL1       -0.0065
     27 C         141.8887  142.3890  166.7423 C.ar    1  UNL1       -0.0168
     28 C         142.9644  142.6693  165.7352 C.ar    1  UNL1       -0.0026
     29 C         142.6220  143.3453  164.4407 C.ar    1  UNL1        0.0143
     30 C         141.2039  143.7410  164.1532 C.ar    1  UNL1        0.0503
     31 C         142.2310  141.7130  168.0369 C.3     1  UNL1        0.0679
     32 C         142.7283  142.5229  169.1974 C.2     1  UNL1        0.0547
     33 O         141.7517  143.1486  170.1486 O.co2   1  UNL1       -0.5488
     34 O         144.2021  142.7072  169.4066 O.co2   1  UNL1       -0.5488
@<TRIPOS>UNITY_ATOM_ATTR
33 1
charge -1
@<TRIPOS>BOND
     1    16    17    1
     2    17    15    1
     3    15     2    1
     4     2     3   ar
     5     3     1    1
     6     1    18    1
     7    18    19    1
     8    19    20    1
     9    20    21    1
    10    21    22   am
    11    22    23    2
    12    22    24    1
    13    24    25    1
    14    25    26   ar
    15    26    27   ar
    16    27    31    1
    17    31    32    1
    18    32    33   ar
    19    32    34   ar
    20    27    28   ar
    21    28    29   ar
    22    29    30   ar
    23     3     4   ar
    24     4     5   ar
    25     5     6   ar
    26     6     7   ar
    27     7    11    1
    28    11    12    1
    29    11    13    1
    30    11    14    1
    31     7     8   ar
    32     8     9   ar
    33     9    10   ar
    34    10     2   ar
    35    30    21    1
    36    10     6   ar
    37    30    25   ar
@<TRIPOS>MOLECULE
*****
 34 37 0 0 0
SMALL
GASTEIGER

@<TRIPOS>ATOM
      1 O         141.1386  142.2779  161.4129 O.3     1  UNL1       -0.4756
      2 C         140.4332  142.0657  163.9044 C.ar    1  UNL1        0.0489
      3 C         140.5521  141.4703  162.5328 C.ar    1  UNL1        0.1375
      4 C         140.0846  140.0676  162.2809 C.ar    1  UNL1        0.0368
      5 C         139.4981  139.2600  163.4007 C.ar    1  UNL1        0.0078
      6 C         139.3792  139.8553  164.7724 C.ar    1  UNL1        0.0619
      7 C         138.8474  139.3052  166.0626 C.ar    1  UNL1        0.1940
      8 N         138.9863  140.3682  167.1118 N.ar    1  UNL1       -0.0730
      9 O         139.6039  141.5751  166.4701 O.2     1  UNL1       -0.3537
     10 C         139.8467  141.2582  165.0242 C.ar    1  UNL1        0.1756
     11 C         138.2769  137.9332  166.2676 C.3     1  UNL1        0.4381
     12 F         137.7064  136.5611  166.4725 F       1  UNL1       -0.1643
     13 F         137.1492  138.5209  167.0631 F       1  UNL1       -0.1643
     14 F         139.4046  137.3454  165.4720 F       1  UNL1       -0.1643
     15 C         140.9007  143.4685  164.1562 C.3     1  UNL1        0.0326
     16 C         138.8758  144.8090  165.0797 C.3     1  UNL1        0.0004
     17 C         139.9377  144.6125  164.0386 C.3     1  UNL1        0.0049
     18 C         142.5154  141.9670  160.9052 C.3     1  UNL1        0.2072
     19 C         143.7178  142.3482  161.7169 C.3     1  UNL1        0.0692
     20 C         144.5358  141.2860  162.3899 C.3     1  UNL1        0.1020
     21 N         143.9341  140.4585  163.4868 N.am    1  UNL1       -0.2585
     22 C         143.5435  139.0137  163.3884 C.2     1  UNL1        0.2338
     23 O         143.6861  138.1425  162.1757 O.2     1  UNL1       -0.2742
     24 C         142.9853  138.5929  164.7155 C.3     1  UNL1        0.1131
     25 C         143.0309  139.7778  165.6342 C.ar    1  UNL1        0.0004
     26 C         142.6142  139.9557  167.0641 C.ar    1  UNL1       -0.0065
     27 C         142.7839  141.2868  167.7347 C.ar    1  UNL1       -0.0168
     28 C         143.3703  142.4398  166.9753 C.ar    1  UNL1       -0.0026
     29 C         143.7870  142.2619  165.5454 C.ar    1  UNL1        0.0143
     30 C         143.6172  140.9308  164.8748 C.ar    1  UNL1        0.0503
     31 C         142.3672  141.4647  169.1646 C.3     1  UNL1        0.0679
     32 C         141.9350  142.8139  169.6576 C.2     1  UNL1        0.0547
     33 O         142.8226  143.5946  170.5810 O.co2   1  UNL1       -0.5488
     34 O         140.6154  143.3823  169.2271 O.co2   1  UNL1       -0.5488
@<TRIPOS>UNITY_ATOM_ATTR
33 1
charge -1
@<TRIPOS>BOND
     1    16    17    1
     2    17    15    1
     3    15     2    1
     4     2     3   ar
     5     3     1    1
     6     1    18    1
     7    18    19    1
     8    19    20    1
     9    20    21    1
    10    21    22   am
    11    22    23    2
    12    22    24    1
    13    24    25    1
    14    25    26   ar
    15    26    27   ar
    16    27    31    1
    17    31    32    1
    18    32    33   ar
    19    32    34   ar
    20    27    28   ar
    21    28    29   ar
    22    29    30   ar
    23     3     4   ar
    24     4     5   ar
    25     5     6   ar
    26     6     7   ar
    27     7    11    1
    28    11    12    1
    29    11    13    1
    30    11    14    1
    31     7     8   ar
    32     8     9   ar
    33     9    10   ar
    34    10     2   ar
    35    30    21    1
    36    10     6   ar
    37    30    25   ar
