@<TRIPOS>MOLECULE
*****
 39 43 0 0 0
SMALL
GASTEIGER

@<TRIPOS>ATOM
      1 C         141.0265  139.0129  159.0897 C.ar    1  UNL1        0.0829
      2 C         140.4081  140.3693  158.9232 C.ar    1  UNL1        0.0193
      3 C         140.2827  141.2863  160.1036 C.ar    1  UNL1        0.0074
      4 C         140.7756  140.8470  161.4504 C.ar    1  UNL1        0.0676
      5 C         140.6502  141.7641  162.6308 C.ar    1  UNL1        0.1376
      6 N         141.1431  141.3248  163.9776 N.ar    1  UNL1       -0.1986
      7 C         141.7615  139.9683  164.1441 C.ar    1  UNL1        0.2228
      8 N         141.8869  139.0513  162.9638 N.ar    1  UNL1       -0.1944
      9 C         141.3940  139.4906  161.6169 C.ar    1  UNL1        0.1678
     10 N         141.5194  138.5736  160.4366 N.ar    1  UNL1       -0.2264
     11 N         142.2544  139.5290  165.4909 N.pl3   1  UNL1       -0.2732
     12 C         141.6441  140.1009  166.7362 C.3     1  UNL1        0.1231
     13 C         142.1371  139.6616  168.0830 C.3     1  UNL1        0.1350
     14 C         141.5268  140.2335  169.3282 C.3     1  UNL1        0.0339
     15 O         143.2403  138.6503  168.1846 O.3     1  UNL1       -0.3552
     16 C         143.8506  138.0784  166.9395 C.3     1  UNL1        0.1350
     17 C         144.9537  137.0672  167.0411 C.3     1  UNL1        0.0339
     18 C         143.3576  138.5178  165.5926 C.3     1  UNL1        0.1231
     19 C         141.4029  136.2615  155.5487 C.ar    1  UNL1        0.1360
     20 C         140.0620  136.8167  155.9279 C.ar    1  UNL1        0.0367
     21 C         139.9366  137.7338  157.1083 C.ar    1  UNL1        0.0046
     22 C         141.1520  138.0958  157.9094 C.ar    1  UNL1        0.0176
     23 C         142.4929  137.5406  157.5301 C.ar    1  UNL1        0.0016
     24 C         142.6184  136.6236  156.3498 C.ar    1  UNL1        0.0277
     25 C         141.7826  135.9103  153.0027 C.3     1  UNL1        0.2525
     26 O         141.5284  135.3445  154.3684 O.3     1  UNL1       -0.4717
     27 C         143.9593  136.0684  155.9706 C.3     1  UNL1        0.0987
     28 N         144.1254  134.5942  155.7498 N.3     1  UNL1       -0.2916
     29 H         145.1040  134.4414  155.5057 H       1  UNL1        0.1236
     30 C         143.7981  133.6293  156.8506 C.3     1  UNL1        0.1010
     31 C         142.7555  132.5723  156.6361 C.3     1  UNL1        0.1542
     32 O         141.4486  132.9279  155.9914 O.3     1  UNL1       -0.3805
     33 H         140.9545  133.5279  156.5717 H       1  UNL1        0.2105
     34 N         140.0318  143.1205  162.4643 N.pl3   1  UNL1       -0.2879
     35 C         140.8395  144.2480  161.8930 C.3     1  UNL1        0.1242
     36 C         140.2211  145.6045  161.7264 C.3     1  UNL1        0.1636
     37 O         138.7950  145.8334  162.1312 O.3     1  UNL1       -0.3501
     38 C         137.9873  144.7059  162.7026 C.3     1  UNL1        0.1636
     39 C         138.6057  143.3495  162.8691 C.3     1  UNL1        0.1242
@<TRIPOS>BOND
     1    25    26    1
     2    26    19    1
     3    19    20   ar
     4    20    21   ar
     5    21    22   ar
     6    22     1    1
     7     1     2   ar
     8     2     3   ar
     9     3     4   ar
    10     4     5   ar
    11     5    34    1
    12    34    35    1
    13    35    36    1
    14    36    37    1
    15    37    38    1
    16    38    39    1
    17     5     6   ar
    18     6     7   ar
    19     7    11    1
    20    11    12    1
    21    12    13    1
    22    13    14    1
    23    13    15    1
    24    15    16    1
    25    16    17    1
    26    16    18    1
    27     7     8   ar
    28     8     9   ar
    29     9    10   ar
    30    22    23   ar
    31    23    24   ar
    32    24    27    1
    33    27    28    1
    34    28    30    1
    35    30    31    1
    36    31    32    1
    37    24    19   ar
    38    10     1   ar
    39     9     4   ar
    40    39    34    1
    41    18    11    1
    42    28    29    1
    43    32    33    1
@<TRIPOS>MOLECULE
*****
 39 43 0 0 0
SMALL
GASTEIGER

@<TRIPOS>ATOM
      1 C         143.6101  137.5518  156.0145 C.ar    1  UNL1        0.0829
      2 C         144.6430  138.0713  155.0589 C.ar    1  UNL1        0.0193
      3 C         145.1994  139.4531  155.2343 C.ar    1  UNL1        0.0074
      4 C         144.7230  140.3155  156.3653 C.ar    1  UNL1        0.0676
      5 C         145.2795  141.6975  156.5407 C.ar    1  UNL1        0.1376
      6 N         144.8030  142.5599  157.6718 N.ar    1  UNL1       -0.1986
      7 C         143.7700  142.0404  158.6274 C.ar    1  UNL1        0.2228
      8 N         143.2136  140.6585  158.4520 N.ar    1  UNL1       -0.1944
      9 C         143.6900  139.7961  157.3209 C.ar    1  UNL1        0.1678
     10 N         143.1336  138.4143  157.1455 N.ar    1  UNL1       -0.2264
     11 N         143.2935  142.9028  159.7584 N.pl3   1  UNL1       -0.2732
     12 C         144.0330  142.9042  161.0635 C.3     1  UNL1        0.1231
     13 C         143.5565  143.7666  162.1945 C.3     1  UNL1        0.1350
     14 C         144.2959  143.7681  163.4996 C.3     1  UNL1        0.0339
     15 O         142.3405  144.6276  162.0204 O.3     1  UNL1       -0.3552
     16 C         141.6011  144.6261  160.7154 C.3     1  UNL1        0.1350
     17 C         140.3852  145.4871  160.5413 C.3     1  UNL1        0.0339
     18 C         142.0776  143.7637  159.5844 C.3     1  UNL1        0.1231
     19 C         141.9406  133.4061  155.4883 C.ar    1  UNL1        0.1360
     20 C         141.2630  134.5757  154.8380 C.ar    1  UNL1        0.0367
     21 C         141.8195  135.9576  155.0134 C.ar    1  UNL1        0.0046
     22 C         143.0536  136.1699  155.8391 C.ar    1  UNL1        0.0176
     23 C         143.7313  135.0004  156.4894 C.ar    1  UNL1        0.0016
     24 C         143.1748  133.6185  156.3141 C.ar    1  UNL1        0.0277
     25 C         140.8709  131.5870  153.9731 C.3     1  UNL1        0.2525
     26 O         141.3842  132.0243  155.3130 O.3     1  UNL1       -0.4717
     27 C         143.8525  132.4490  156.9644 C.3     1  UNL1        0.0987
     28 N         143.0338  131.3816  157.6279 N.3     1  UNL1       -0.2916
     29 H         142.0828  131.4755  157.2712 H       1  UNL1        0.1236
     30 C         143.4142  129.9390  157.4720 C.3     1  UNL1        0.1010
     31 C         144.1573  129.2366  158.5695 C.3     1  UNL1        0.1542
     32 O         143.4877  128.9871  159.8884 O.3     1  UNL1       -0.3805
     33 H         143.3124  129.8342  160.3273 H       1  UNL1        0.2105
     34 N         146.3124  142.2169  155.5851 N.pl3   1  UNL1       -0.2879
     35 C         145.9092  143.1407  154.4742 C.3     1  UNL1        0.1242
     36 C         146.9423  143.6601  153.5186 C.3     1  UNL1        0.1636
     37 O         148.3783  143.2558  153.6739 O.3     1  UNL1       -0.3501
     38 C         148.7815  142.3320  154.7848 C.3     1  UNL1        0.1636
     39 C         147.7485  141.8126  155.7404 C.3     1  UNL1        0.1242
@<TRIPOS>BOND
     1    25    26    1
     2    26    19    1
     3    19    20   ar
     4    20    21   ar
     5    21    22   ar
     6    22     1    1
     7     1     2   ar
     8     2     3   ar
     9     3     4   ar
    10     4     5   ar
    11     5    34    1
    12    34    35    1
    13    35    36    1
    14    36    37    1
    15    37    38    1
    16    38    39    1
    17     5     6   ar
    18     6     7   ar
    19     7    11    1
    20    11    12    1
    21    12    13    1
    22    13    14    1
    23    13    15    1
    24    15    16    1
    25    16    17    1
    26    16    18    1
    27     7     8   ar
    28     8     9   ar
    29     9    10   ar
    30    22    23   ar
    31    23    24   ar
    32    24    27    1
    33    27    28    1
    34    28    30    1
    35    30    31    1
    36    31    32    1
    37    24    19   ar
    38    10     1   ar
    39     9     4   ar
    40    39    34    1
    41    18    11    1
    42    28    29    1
    43    32    33    1
@<TRIPOS>MOLECULE
*****
 39 43 0 0 0
SMALL
GASTEIGER

@<TRIPOS>ATOM
      1 C         142.5125  135.9924  155.1770 C.ar    1  UNL1        0.0829
      2 C         142.9084  137.1879  154.3621 C.ar    1  UNL1        0.0193
      3 C         143.2967  138.4657  155.0450 C.ar    1  UNL1        0.0074
      4 C         143.2892  138.5480  156.5427 C.ar    1  UNL1        0.0676
      5 C         143.6776  139.8259  157.2256 C.ar    1  UNL1        0.1376
      6 N         143.6700  139.9082  158.7233 N.ar    1  UNL1       -0.1986
      7 C         143.2741  138.7126  159.5382 C.ar    1  UNL1        0.2228
      8 N         142.8857  137.4348  158.8553 N.ar    1  UNL1       -0.1944
      9 C         142.8933  137.3525  157.3576 C.ar    1  UNL1        0.1678
     10 N         142.5049  136.0747  156.6747 N.ar    1  UNL1       -0.2264
     11 N         143.2665  138.7949  161.0359 N.pl3   1  UNL1       -0.2732
     12 C         144.2516  139.6775  161.7435 C.3     1  UNL1        0.1231
     13 C         144.2441  139.7598  163.2412 C.3     1  UNL1        0.1350
     14 C         145.2292  140.6423  163.9488 C.3     1  UNL1        0.0339
     15 O         143.2514  138.9595  164.0313 O.3     1  UNL1       -0.3552
     16 C         142.2663  138.0770  163.3237 C.3     1  UNL1        0.1350
     17 C         141.2737  137.2769  164.1138 C.3     1  UNL1        0.0339
     18 C         142.2739  137.9947  161.8260 C.3     1  UNL1        0.1231
     19 C         141.3473  132.1588  153.1284 C.ar    1  UNL1        0.1360
     20 C         141.3101  133.4542  152.3730 C.ar    1  UNL1        0.0367
     21 C         141.6985  134.7321  153.0559 C.ar    1  UNL1        0.0046
     22 C         142.1241  134.7145  154.4941 C.ar    1  UNL1        0.0176
     23 C         142.1613  133.4192  155.2495 C.ar    1  UNL1        0.0016
     24 C         141.7729  132.1413  154.5667 C.ar    1  UNL1        0.0277
     25 C         139.5350  130.4112  152.4871 C.3     1  UNL1        0.2525
     26 O         140.9589  130.8810  152.4456 O.3     1  UNL1       -0.4717
     27 C         141.8101  130.8460  155.3221 C.3     1  UNL1        0.0987
     28 N         142.8451  129.8128  154.9887 N.3     1  UNL1       -0.2916
     29 H         142.6184  129.4580  154.0597 H       1  UNL1        0.1236
     30 C         144.2977  130.1861  154.9671 C.3     1  UNL1        0.1010
     31 C         144.9369  130.7832  156.1857 C.3     1  UNL1        0.1542
     32 O         145.3497  132.2253  156.1857 O.3     1  UNL1       -0.3805
     33 H         146.0667  132.3564  155.5456 H       1  UNL1        0.2105
     34 N         144.0735  141.0214  156.4107 N.pl3   1  UNL1       -0.2879
     35 C         143.0257  141.9793  155.9264 C.3     1  UNL1        0.1242
     36 C         143.4217  143.1749  155.1116 C.3     1  UNL1        0.1636
     37 O         144.8654  143.4124  154.7810 O.3     1  UNL1       -0.3501
     38 C         145.9132  142.4545  155.2653 C.3     1  UNL1        0.1636
     39 C         145.5172  141.2590  156.0802 C.3     1  UNL1        0.1242
@<TRIPOS>BOND
     1    25    26    1
     2    26    19    1
     3    19    20   ar
     4    20    21   ar
     5    21    22   ar
     6    22     1    1
     7     1     2   ar
     8     2     3   ar
     9     3     4   ar
    10     4     5   ar
    11     5    34    1
    12    34    35    1
    13    35    36    1
    14    36    37    1
    15    37    38    1
    16    38    39    1
    17     5     6   ar
    18     6     7   ar
    19     7    11    1
    20    11    12    1
    21    12    13    1
    22    13    14    1
    23    13    15    1
    24    15    16    1
    25    16    17    1
    26    16    18    1
    27     7     8   ar
    28     8     9   ar
    29     9    10   ar
    30    22    23   ar
    31    23    24   ar
    32    24    27    1
    33    27    28    1
    34    28    30    1
    35    30    31    1
    36    31    32    1
    37    24    19   ar
    38    10     1   ar
    39     9     4   ar
    40    39    34    1
    41    18    11    1
    42    28    29    1
    43    32    33    1
@<TRIPOS>MOLECULE
*****
 39 43 0 0 0
SMALL
GASTEIGER

@<TRIPOS>ATOM
      1 C         140.5931  138.1631  156.3150 C.ar    1  UNL1        0.0829
      2 C         140.2935  139.2901  155.3716 C.ar    1  UNL1        0.0193
      3 C         139.7179  140.5727  155.8943 C.ar    1  UNL1        0.0074
      4 C         139.4418  140.7284  157.3604 C.ar    1  UNL1        0.0676
      5 C         138.8661  142.0112  157.8832 C.ar    1  UNL1        0.1376
      6 N         138.5900  142.1668  159.3493 N.ar    1  UNL1       -0.1986
      7 C         138.8896  141.0397  160.2927 C.ar    1  UNL1        0.2228
      8 N         139.4653  139.7571  159.7700 N.ar    1  UNL1       -0.1944
      9 C         139.7414  139.6014  158.3038 C.ar    1  UNL1        0.1678
     10 N         140.3170  138.3187  157.7811 N.ar    1  UNL1       -0.2264
     11 N         138.6135  141.1954  161.7588 N.pl3   1  UNL1       -0.2732
     12 C         138.6819  140.0024  162.6657 C.3     1  UNL1        0.1231
     13 C         138.4058  140.1581  164.1318 C.3     1  UNL1        0.1350
     14 C         138.4741  138.9653  165.0387 C.3     1  UNL1        0.0339
     15 O         138.0614  141.5067  164.6911 O.3     1  UNL1       -0.3552
     16 C         137.9930  142.6995  163.7843 C.3     1  UNL1        0.1350
     17 C         137.6486  144.0480  164.3436 C.3     1  UNL1        0.0339
     18 C         138.2691  142.5439  162.3181 C.3     1  UNL1        0.1231
     19 C         142.3202  134.3148  154.7469 C.ar    1  UNL1        0.1360
     20 C         141.4776  135.1773  153.8546 C.ar    1  UNL1        0.0367
     21 C         140.9018  136.4600  154.3773 C.ar    1  UNL1        0.0046
     22 C         141.1688  136.8803  155.7922 C.ar    1  UNL1        0.0176
     23 C         142.0115  136.0179  156.6845 C.ar    1  UNL1        0.0016
     24 C         142.5872  134.7352  156.1619 C.ar    1  UNL1        0.0277
     25 C         141.9877  131.8929  153.8675 C.3     1  UNL1        0.2525
     26 O         142.8959  133.0321  154.2242 O.3     1  UNL1       -0.4717
     27 C         143.4298  133.8727  157.0541 C.3     1  UNL1        0.0987
     28 N         142.9163  132.5396  157.5114 N.3     1  UNL1       -0.2916
     29 H         141.9678  132.4489  157.1475 H       1  UNL1        0.1236
     30 C         143.6468  131.2850  157.1340 C.3     1  UNL1        0.1010
     31 C         144.9860  131.3696  156.4636 C.3     1  UNL1        0.1542
     32 O         145.2461  130.5928  155.2071 O.3     1  UNL1       -0.3805
     33 H         145.2225  129.6432  155.4032 H       1  UNL1        0.2105
     34 N         138.5665  143.1382  156.9398 N.pl3   1  UNL1       -0.2879
     35 C         139.5425  144.2667  156.7855 C.3     1  UNL1        0.1242
     36 C         139.2429  145.3937  155.8420 C.3     1  UNL1        0.1636
     37 O         137.9673  145.3923  155.0529 O.3     1  UNL1       -0.3501
     38 C         136.9912  144.2638  155.2072 C.3     1  UNL1        0.1636
     39 C         137.2908  143.1367  156.1506 C.3     1  UNL1        0.1242
@<TRIPOS>BOND
     1    25    26    1
     2    26    19    1
     3    19    20   ar
     4    20    21   ar
     5    21    22   ar
     6    22     1    1
     7     1     2   ar
     8     2     3   ar
     9     3     4   ar
    10     4     5   ar
    11     5    34    1
    12    34    35    1
    13    35    36    1
    14    36    37    1
    15    37    38    1
    16    38    39    1
    17     5     6   ar
    18     6     7   ar
    19     7    11    1
    20    11    12    1
    21    12    13    1
    22    13    14    1
    23    13    15    1
    24    15    16    1
    25    16    17    1
    26    16    18    1
    27     7     8   ar
    28     8     9   ar
    29     9    10   ar
    30    22    23   ar
    31    23    24   ar
    32    24    27    1
    33    27    28    1
    34    28    30    1
    35    30    31    1
    36    31    32    1
    37    24    19   ar
    38    10     1   ar
    39     9     4   ar
    40    39    34    1
    41    18    11    1
    42    28    29    1
    43    32    33    1
@<TRIPOS>MOLECULE
*****
 39 43 0 0 0
SMALL
GASTEIGER

@<TRIPOS>ATOM
      1 C         143.7489  141.6381  160.0234 C.ar    1  UNL1        0.0829
      2 C         144.6374  142.5885  159.2770 C.ar    1  UNL1        0.0193
      3 C         145.1048  142.2481  157.8929 C.ar    1  UNL1        0.0074
      4 C         144.6836  140.9573  157.2553 C.ar    1  UNL1        0.0676
      5 C         145.1510  140.6170  155.8711 C.ar    1  UNL1        0.1376
      6 N         144.7299  139.3262  155.2335 N.ar    1  UNL1       -0.1986
      7 C         143.8414  138.3758  155.9801 C.ar    1  UNL1        0.2228
      8 N         143.3740  138.7162  157.3641 N.ar    1  UNL1       -0.1944
      9 C         143.7951  140.0069  158.0017 C.ar    1  UNL1        0.1678
     10 N         143.3278  140.3473  159.3858 N.ar    1  UNL1       -0.2264
     11 N         143.4202  137.0850  155.3424 N.pl3   1  UNL1       -0.2732
     12 C         142.5509  137.1009  154.1200 C.3     1  UNL1        0.1231
     13 C         142.1298  135.8102  153.4824 C.3     1  UNL1        0.1350
     14 C         141.2606  135.8260  152.2601 C.3     1  UNL1        0.0339
     15 O         142.5779  134.5035  154.0672 O.3     1  UNL1       -0.3552
     16 C         143.4471  134.4877  155.2895 C.3     1  UNL1        0.1350
     17 C         143.8952  133.1810  155.8743 C.3     1  UNL1        0.0339
     18 C         143.8683  135.7784  155.9272 C.3     1  UNL1        0.1231
     19 C         142.3467  142.6591  164.1758 C.ar    1  UNL1        0.1360
     20 C         142.6233  141.2316  163.8074 C.ar    1  UNL1        0.0367
     21 C         143.0907  140.8912  162.4232 C.ar    1  UNL1        0.0046
     22 C         143.2815  141.9784  161.4076 C.ar    1  UNL1        0.0176
     23 C         143.0049  143.4059  161.7759 C.ar    1  UNL1        0.0016
     24 C         142.5376  143.7463  163.1600 C.ar    1  UNL1        0.0277
     25 C         142.3160  142.1629  166.7257 C.3     1  UNL1        0.2525
     26 O         141.8793  142.9995  165.5598 O.3     1  UNL1       -0.4717
     27 C         142.2610  145.1738  163.5284 C.3     1  UNL1        0.0987
     28 N         140.8612  145.6084  163.8473 N.3     1  UNL1       -0.2916
     29 H         140.8973  146.6126  164.0221 H       1  UNL1        0.1236
     30 C         139.7606  145.3812  162.8538 C.3     1  UNL1        0.1010
     31 C         138.7337  144.3164  163.1026 C.3     1  UNL1        0.1542
     32 O         137.3235  144.5094  162.6291 O.3     1  UNL1       -0.3805
     33 H         136.9169  145.2438  163.1151 H       1  UNL1        0.2105
     34 N         146.0395  141.5674  155.1247 N.pl3   1  UNL1       -0.2879
     35 C         147.5297  141.4669  155.2634 C.3     1  UNL1        0.1242
     36 C         148.4183  142.4174  154.5169 C.3     1  UNL1        0.1636
     37 O         147.8166  143.4683  153.6317 O.3     1  UNL1       -0.3501
     38 C         146.3264  143.5688  153.4930 C.3     1  UNL1        0.1636
     39 C         145.4379  142.6184  154.2395 C.3     1  UNL1        0.1242
@<TRIPOS>BOND
     1    25    26    1
     2    26    19    1
     3    19    20   ar
     4    20    21   ar
     5    21    22   ar
     6    22     1    1
     7     1     2   ar
     8     2     3   ar
     9     3     4   ar
    10     4     5   ar
    11     5    34    1
    12    34    35    1
    13    35    36    1
    14    36    37    1
    15    37    38    1
    16    38    39    1
    17     5     6   ar
    18     6     7   ar
    19     7    11    1
    20    11    12    1
    21    12    13    1
    22    13    14    1
    23    13    15    1
    24    15    16    1
    25    16    17    1
    26    16    18    1
    27     7     8   ar
    28     8     9   ar
    29     9    10   ar
    30    22    23   ar
    31    23    24   ar
    32    24    27    1
    33    27    28    1
    34    28    30    1
    35    30    31    1
    36    31    32    1
    37    24    19   ar
    38    10     1   ar
    39     9     4   ar
    40    39    34    1
    41    18    11    1
    42    28    29    1
    43    32    33    1
@<TRIPOS>MOLECULE
*****
 39 43 0 0 0
SMALL
GASTEIGER

@<TRIPOS>ATOM
      1 C         143.2580  141.2419  160.8643 C.ar    1  UNL1        0.0829
      2 C         143.9808  142.2915  160.0733 C.ar    1  UNL1        0.0193
      3 C         144.3791  142.0186  158.6532 C.ar    1  UNL1        0.0074
      4 C         144.0546  140.6961  158.0241 C.ar    1  UNL1        0.0676
      5 C         144.4530  140.4233  156.6038 C.ar    1  UNL1        0.1376
      6 N         144.1284  139.1008  155.9747 N.ar    1  UNL1       -0.1986
      7 C         143.4056  138.0512  156.7659 C.ar    1  UNL1        0.2228
      8 N         143.0073  138.3240  158.1860 N.ar    1  UNL1       -0.1944
      9 C         143.3318  139.6465  158.8151 C.ar    1  UNL1        0.1678
     10 N         142.9335  139.9194  160.2353 N.ar    1  UNL1       -0.2264
     11 N         143.0810  136.7287  156.1368 N.pl3   1  UNL1       -0.2732
     12 C         142.5694  136.6738  154.7278 C.3     1  UNL1        0.1231
     13 C         142.2449  135.3514  154.0987 C.3     1  UNL1        0.1350
     14 C         141.7333  135.2965  152.6897 C.3     1  UNL1        0.0339
     15 O         142.4320  134.0838  154.8786 O.3     1  UNL1       -0.3552
     16 C         142.9436  134.1387  156.2876 C.3     1  UNL1        0.1350
     17 C         143.1307  132.8711  157.0674 C.3     1  UNL1        0.0339
     18 C         143.2681  135.4611  156.9167 C.3     1  UNL1        0.1231
     19 C         142.0630  142.0603  165.1249 C.ar    1  UNL1        0.1360
     20 C         143.3126  142.6732  164.5656 C.ar    1  UNL1        0.0367
     21 C         143.7109  142.4004  163.1453 C.ar    1  UNL1        0.0046
     22 C         142.8597  141.5147  162.2846 C.ar    1  UNL1        0.0176
     23 C         141.6101  140.9018  162.8440 C.ar    1  UNL1        0.0016
     24 C         141.2117  141.1746  164.2641 C.ar    1  UNL1        0.0277
     25 C         142.6455  142.1037  167.6564 C.3     1  UNL1        0.2525
     26 O         141.6646  142.3331  166.5451 O.3     1  UNL1       -0.4717
     27 C         139.9621  140.5617  164.8235 C.3     1  UNL1        0.0987
     28 N         138.8540  141.4409  165.3226 N.3     1  UNL1       -0.2916
     29 H         139.1694  141.8385  166.2074 H       1  UNL1        0.1236
     30 C         138.3680  142.5847  164.4826 C.3     1  UNL1        0.1010
     31 C         137.6862  142.3173  163.1736 C.3     1  UNL1        0.1542
     32 O         136.5881  141.2985  163.0943 O.3     1  UNL1       -0.3805
     33 H         136.9518  140.4168  163.2710 H       1  UNL1        0.2105
     34 N         145.1758  141.4729  155.8128 N.pl3   1  UNL1       -0.2879
     35 C         144.4050  142.4142  154.9353 C.3     1  UNL1        0.1242
     36 C         145.1279  143.4638  154.1443 C.3     1  UNL1        0.1636
     37 O         146.6215  143.5721  154.2307 O.3     1  UNL1       -0.3501
     38 C         147.3922  142.6308  155.1081 C.3     1  UNL1        0.1636
     39 C         146.6694  141.5812  155.8992 C.3     1  UNL1        0.1242
@<TRIPOS>BOND
     1    25    26    1
     2    26    19    1
     3    19    20   ar
     4    20    21   ar
     5    21    22   ar
     6    22     1    1
     7     1     2   ar
     8     2     3   ar
     9     3     4   ar
    10     4     5   ar
    11     5    34    1
    12    34    35    1
    13    35    36    1
    14    36    37    1
    15    37    38    1
    16    38    39    1
    17     5     6   ar
    18     6     7   ar
    19     7    11    1
    20    11    12    1
    21    12    13    1
    22    13    14    1
    23    13    15    1
    24    15    16    1
    25    16    17    1
    26    16    18    1
    27     7     8   ar
    28     8     9   ar
    29     9    10   ar
    30    22    23   ar
    31    23    24   ar
    32    24    27    1
    33    27    28    1
    34    28    30    1
    35    30    31    1
    36    31    32    1
    37    24    19   ar
    38    10     1   ar
    39     9     4   ar
    40    39    34    1
    41    18    11    1
    42    28    29    1
    43    32    33    1
@<TRIPOS>MOLECULE
*****
 39 43 0 0 0
SMALL
GASTEIGER

@<TRIPOS>ATOM
      1 C         141.4218  143.9552  160.1366 C.ar    1  UNL1        0.0829
      2 C         141.6521  145.2081  159.3447 C.ar    1  UNL1        0.0193
      3 C         140.9652  145.3979  158.0248 C.ar    1  UNL1        0.0074
      4 C         140.0482  144.3348  157.4968 C.ar    1  UNL1        0.0676
      5 C         139.3613  144.5246  156.1768 C.ar    1  UNL1        0.1376
      6 N         138.4443  143.4615  155.6488 N.ar    1  UNL1       -0.1986
      7 C         138.2140  142.2086  156.4408 C.ar    1  UNL1        0.2228
      8 N         138.9009  142.0188  157.7607 N.ar    1  UNL1       -0.1944
      9 C         139.8179  143.0819  158.2887 C.ar    1  UNL1        0.1678
     10 N         140.5048  142.8921  159.6086 N.ar    1  UNL1       -0.2264
     11 N         137.2970  141.1454  155.9128 N.pl3   1  UNL1       -0.2732
     12 C         135.8215  141.2330  156.1686 C.3     1  UNL1        0.1231
     13 C         134.9044  140.1699  155.6406 C.3     1  UNL1        0.1350
     14 C         133.4290  140.2574  155.8963 C.3     1  UNL1        0.0339
     15 O         135.4628  139.0192  154.8568 O.3     1  UNL1       -0.3552
     16 C         136.9383  138.9317  154.6011 C.3     1  UNL1        0.1350
     17 C         137.4966  137.7811  153.8174 C.3     1  UNL1        0.0339
     18 C         137.8553  139.9948  155.1291 C.3     1  UNL1        0.1231
     19 C         143.4823  143.3857  164.0965 C.ar    1  UNL1        0.1360
     20 C         142.2177  144.1884  164.0177 C.ar    1  UNL1        0.0367
     21 C         141.5308  144.3783  162.6977 C.ar    1  UNL1        0.0046
     22 C         142.1087  143.7654  161.4566 C.ar    1  UNL1        0.0176
     23 C         143.3733  142.9626  161.5354 C.ar    1  UNL1        0.0016
     24 C         144.0602  142.7727  162.8552 C.ar    1  UNL1        0.0277
     25 C         143.4451  142.5320  166.5499 C.3     1  UNL1        0.2525
     26 O         144.1692  143.1958  165.4163 O.3     1  UNL1       -0.4717
     27 C         145.3248  141.9700  162.9340 C.3     1  UNL1        0.0987
     28 N         145.5591  141.0517  164.0967 N.3     1  UNL1       -0.2916
     29 H         145.1910  141.5230  164.9230 H       1  UNL1        0.1236
     30 C         144.9755  139.6699  164.0905 C.3     1  UNL1        0.1010
     31 C         144.0552  139.2493  162.9831 C.3     1  UNL1        0.1542
     32 O         144.6209  138.7602  161.6828 O.3     1  UNL1       -0.3805
     33 H         145.0872  139.4862  161.2396 H       1  UNL1        0.2105
     34 N         139.5916  145.7775  155.3849 N.pl3   1  UNL1       -0.2879
     35 C         138.8458  147.0319  155.7320 C.3     1  UNL1        0.1242
     36 C         139.0761  148.2848  154.9400 C.3     1  UNL1        0.1636
     37 O         140.0521  148.2834  153.8010 O.3     1  UNL1       -0.3501
     38 C         140.7979  147.0290  153.4539 C.3     1  UNL1        0.1636
     39 C         140.5676  145.7761  154.2458 C.3     1  UNL1        0.1242
@<TRIPOS>BOND
     1    25    26    1
     2    26    19    1
     3    19    20   ar
     4    20    21   ar
     5    21    22   ar
     6    22     1    1
     7     1     2   ar
     8     2     3   ar
     9     3     4   ar
    10     4     5   ar
    11     5    34    1
    12    34    35    1
    13    35    36    1
    14    36    37    1
    15    37    38    1
    16    38    39    1
    17     5     6   ar
    18     6     7   ar
    19     7    11    1
    20    11    12    1
    21    12    13    1
    22    13    14    1
    23    13    15    1
    24    15    16    1
    25    16    17    1
    26    16    18    1
    27     7     8   ar
    28     8     9   ar
    29     9    10   ar
    30    22    23   ar
    31    23    24   ar
    32    24    27    1
    33    27    28    1
    34    28    30    1
    35    30    31    1
    36    31    32    1
    37    24    19   ar
    38    10     1   ar
    39     9     4   ar
    40    39    34    1
    41    18    11    1
    42    28    29    1
    43    32    33    1
@<TRIPOS>MOLECULE
*****
 39 43 0 0 0
SMALL
GASTEIGER

@<TRIPOS>ATOM
      1 C         137.5556  140.2861  155.8194 C.ar    1  UNL1        0.0829
      2 C         138.7041  139.7576  155.0124 C.ar    1  UNL1        0.0193
      3 C         139.9819  139.3660  155.6934 C.ar    1  UNL1        0.0074
      4 C         140.1111  139.5030  157.1816 C.ar    1  UNL1        0.0676
      5 C         141.3890  139.1114  157.8627 C.ar    1  UNL1        0.1376
      6 N         141.5182  139.2484  159.3508 N.ar    1  UNL1       -0.1986
      7 C         140.3695  139.7769  160.1578 C.ar    1  UNL1        0.2228
      8 N         139.0917  140.1685  159.4768 N.ar    1  UNL1       -0.1944
      9 C         138.9625  140.0315  157.9886 C.ar    1  UNL1        0.1678
     10 N         137.6848  140.4231  157.3076 N.ar    1  UNL1       -0.2264
     11 N         140.4987  139.9139  161.6460 N.pl3   1  UNL1       -0.2732
     12 C         139.7398  140.9870  162.3691 C.3     1  UNL1        0.1231
     13 C         139.8691  141.1239  163.8572 C.3     1  UNL1        0.1350
     14 C         139.1102  142.1969  164.5803 C.3     1  UNL1        0.0339
     15 O         140.7571  140.1879  164.6222 O.3     1  UNL1       -0.3552
     16 C         141.5159  139.1149  163.8991 C.3     1  UNL1        0.1350
     17 C         142.4040  138.1790  164.6642 C.3     1  UNL1        0.0339
     18 C         141.3867  138.9779  162.4110 C.3     1  UNL1        0.1231
     19 C         133.7220  141.4609  153.7763 C.ar    1  UNL1        0.1360
     20 C         135.0166  141.4961  153.0194 C.ar    1  UNL1        0.0367
     21 C         136.2944  141.1045  153.7005 C.ar    1  UNL1        0.0046
     22 C         136.2777  140.6777  155.1383 C.ar    1  UNL1        0.0176
     23 C         134.9831  140.6426  155.8952 C.ar    1  UNL1        0.0016
     24 C         133.7053  141.0342  155.2142 C.ar    1  UNL1        0.0277
     25 C         132.4674  142.8439  151.9699 C.3     1  UNL1        0.2525
     26 O         132.4442  141.8525  153.0953 O.3     1  UNL1       -0.4717
     27 C         132.4108  140.9990  155.9711 C.3     1  UNL1        0.0987
     28 N         131.7484  139.6853  156.2636 N.3     1  UNL1       -0.2916
     29 H         132.1801  138.9948  155.6495 H       1  UNL1        0.1236
     30 C         131.7900  139.1169  157.6511 C.3     1  UNL1        0.1010
     31 C         133.0221  138.4121  158.1363 C.3     1  UNL1        0.1542
     32 O         133.9113  139.0686  159.1504 O.3     1  UNL1       -0.3805
     33 H         134.3187  139.8578  158.7605 H       1  UNL1        0.2105
     34 N         142.5375  138.5828  157.0556 N.pl3   1  UNL1       -0.2879
     35 C         143.5290  139.5322  156.4509 C.3     1  UNL1        0.1242
     36 C         144.6776  139.0036  155.6438 C.3     1  UNL1        0.1636
     37 O         144.8347  137.5256  155.4415 O.3     1  UNL1       -0.3501
     38 C         143.8432  136.5763  156.0462 C.3     1  UNL1        0.1636
     39 C         142.6947  137.1048  156.8532 C.3     1  UNL1        0.1242
@<TRIPOS>BOND
     1    25    26    1
     2    26    19    1
     3    19    20   ar
     4    20    21   ar
     5    21    22   ar
     6    22     1    1
     7     1     2   ar
     8     2     3   ar
     9     3     4   ar
    10     4     5   ar
    11     5    34    1
    12    34    35    1
    13    35    36    1
    14    36    37    1
    15    37    38    1
    16    38    39    1
    17     5     6   ar
    18     6     7   ar
    19     7    11    1
    20    11    12    1
    21    12    13    1
    22    13    14    1
    23    13    15    1
    24    15    16    1
    25    16    17    1
    26    16    18    1
    27     7     8   ar
    28     8     9   ar
    29     9    10   ar
    30    22    23   ar
    31    23    24   ar
    32    24    27    1
    33    27    28    1
    34    28    30    1
    35    30    31    1
    36    31    32    1
    37    24    19   ar
    38    10     1   ar
    39     9     4   ar
    40    39    34    1
    41    18    11    1
    42    28    29    1
    43    32    33    1
@<TRIPOS>MOLECULE
*****
 39 43 0 0 0
SMALL
GASTEIGER

@<TRIPOS>ATOM
      1 C         141.6377  138.6234  156.9820 C.ar    1  UNL1        0.0829
      2 C         141.7997  139.8638  156.1543 C.ar    1  UNL1        0.0193
      3 C         141.4246  141.1997  156.7239 C.ar    1  UNL1        0.0074
      4 C         140.8876  141.2953  158.1212 C.ar    1  UNL1        0.0676
      5 C         140.5125  142.6313  158.6909 C.ar    1  UNL1        0.1376
      6 N         139.9754  142.7268  160.0882 N.ar    1  UNL1       -0.1986
      7 C         139.8135  141.4863  160.9158 C.ar    1  UNL1        0.2228
      8 N         140.1885  140.1504  160.3462 N.ar    1  UNL1       -0.1944
      9 C         140.7256  140.0548  158.9489 C.ar    1  UNL1        0.1678
     10 N         141.1006  138.7189  158.3793 N.ar    1  UNL1       -0.2264
     11 N         139.2764  141.5818  162.3131 N.pl3   1  UNL1       -0.2732
     12 C         138.9213  142.9201  162.8903 C.3     1  UNL1        0.1231
     13 C         138.3842  143.0156  164.2876 C.3     1  UNL1        0.1350
     14 C         138.0291  144.3538  164.8647 C.3     1  UNL1        0.0339
     15 O         138.2023  141.7729  165.1077 O.3     1  UNL1       -0.3552
     16 C         138.5574  140.4347  164.5306 C.3     1  UNL1        0.1350
     17 C         138.3755  139.1921  165.3507 C.3     1  UNL1        0.0339
     18 C         139.0945  140.3392  163.1333 C.3     1  UNL1        0.1231
     19 C         142.7629  134.6153  155.2732 C.ar    1  UNL1        0.1360
     20 C         142.1370  135.6567  154.3935 C.ar    1  UNL1        0.0367
     21 C         141.7619  136.9927  154.9631 C.ar    1  UNL1        0.0046
     22 C         142.0127  137.2873  156.4123 C.ar    1  UNL1        0.0176
     23 C         142.6386  136.2459  157.2920 C.ar    1  UNL1        0.0016
     24 C         143.0137  134.9100  156.7224 C.ar    1  UNL1        0.0277
     25 C         142.1449  132.1551  154.7116 C.3     1  UNL1        0.2525
     26 O         143.1379  133.2793  154.7036 O.3     1  UNL1       -0.4717
     27 C         143.6396  133.8686  157.6021 C.3     1  UNL1        0.0987
     28 N         144.8443  133.1114  157.1274 N.3     1  UNL1       -0.2916
     29 H         145.5946  133.7929  157.0142 H       1  UNL1        0.1236
     30 C         145.3991  131.9899  157.9547 C.3     1  UNL1        0.1010
     31 C         144.7772  130.6267  157.8837 C.3     1  UNL1        0.1542
     32 O         143.3008  130.4641  158.0931 O.3     1  UNL1       -0.3805
     33 H         143.0762  130.6976  159.0074 H       1  UNL1        0.2105
     34 N         140.6745  143.8717  157.8632 N.pl3   1  UNL1       -0.2879
     35 C         141.9389  144.6737  157.9534 C.3     1  UNL1        0.1242
     36 C         142.1008  145.9142  157.1256 C.3     1  UNL1        0.1636
     37 O         140.9984  146.3526  156.2078 O.3     1  UNL1       -0.3501
     38 C         139.7340  145.5506  156.1177 C.3     1  UNL1        0.1636
     39 C         139.5720  144.3102  156.9453 C.3     1  UNL1        0.1242
@<TRIPOS>BOND
     1    25    26    1
     2    26    19    1
     3    19    20   ar
     4    20    21   ar
     5    21    22   ar
     6    22     1    1
     7     1     2   ar
     8     2     3   ar
     9     3     4   ar
    10     4     5   ar
    11     5    34    1
    12    34    35    1
    13    35    36    1
    14    36    37    1
    15    37    38    1
    16    38    39    1
    17     5     6   ar
    18     6     7   ar
    19     7    11    1
    20    11    12    1
    21    12    13    1
    22    13    14    1
    23    13    15    1
    24    15    16    1
    25    16    17    1
    26    16    18    1
    27     7     8   ar
    28     8     9   ar
    29     9    10   ar
    30    22    23   ar
    31    23    24   ar
    32    24    27    1
    33    27    28    1
    34    28    30    1
    35    30    31    1
    36    31    32    1
    37    24    19   ar
    38    10     1   ar
    39     9     4   ar
    40    39    34    1
    41    18    11    1
    42    28    29    1
    43    32    33    1
