@<TRIPOS>MOLECULE
*****
 32 36 0 0 0
SMALL
GASTEIGER

@<TRIPOS>ATOM
      1 C         141.2109  141.8861  165.4281 C.ar    1  UNL1        0.0923
      2 C         141.0475  142.2391  166.8768 C.ar    1  UNL1        0.1671
      3 O         140.0639  143.3676  166.9707 O.2     1  UNL1       -0.4518
      4 C         139.6193  143.7121  165.5801 C.ar    1  UNL1        0.1455
      5 C         138.6606  144.7412  165.0589 C.ar    1  UNL1        0.0406
      6 C         138.4109  144.8547  163.5842 C.ar    1  UNL1        0.0395
      7 C         139.1198  143.9390  162.6308 C.ar    1  UNL1        0.1311
      8 O         138.8700  144.0525  161.1560 O.3     1  UNL1       -0.5058
      9 C         140.0785  142.9099  163.1520 C.ar    1  UNL1        0.0308
     10 C         140.3283  142.7964  164.6267 C.ar    1  UNL1        0.0422
     11 H         138.2712  144.6954  160.8304 H       1  UNL1        0.2922
     12 C         141.7452  141.5794  168.0292 C.ar    1  UNL1        0.1161
     13 C         142.8295  142.3082  168.7661 C.ar    1  UNL1        0.0254
     14 C         143.5273  141.6485  169.9185 C.ar    1  UNL1        0.0399
     15 C         143.1407  140.2600  170.3340 C.ar    1  UNL1        0.1528
     16 O         143.8384  139.6003  171.4863 O.3     1  UNL1       -0.5039
     17 C         142.0564  139.5312  169.5970 C.ar    1  UNL1        0.1354
     18 N         141.3586  140.1909  168.4446 N.ar    1  UNL1       -0.2376
     19 H         144.5157  140.0556  171.9467 H       1  UNL1        0.2923
     20 O         143.4896  141.1479  164.4219 O.2     1  UNL1       -0.2698
     21 C         142.1008  140.8114  164.8774 C.2     1  UNL1        0.2521
     22 N         141.6017  139.4000  164.7824 N.am    1  UNL1       -0.2759
     23 C         142.1791  138.1007  164.3044 C.3     1  UNL1        0.0955
     24 C         140.8958  137.4041  164.6480 C.3     1  UNL1        0.0430
     25 C         140.3184  138.7033  165.1260 C.3     1  UNL1        0.0955
     26 C         140.7875  141.9942  162.1986 C.3     1  UNL1        0.1023
     27 N         140.2027  140.6519  161.8731 N.3     1  UNL1       -0.2689
     28 C         138.7836  140.3413  162.2468 C.3     1  UNL1        0.0724
     29 C         138.1988  138.9989  161.9212 C.3     1  UNL1        0.0174
     30 C         139.0332  137.9670  161.2219 C.3     1  UNL1        0.0029
     31 C         140.4523  138.2775  160.8481 C.3     1  UNL1        0.0174
     32 C         141.0371  139.6200  161.1737 C.3     1  UNL1        0.0724
@<TRIPOS>BOND
     1    20    21    2
     2    21     1    1
     3     1     2   ar
     4     2    12    1
     5    12    13   ar
     6    13    14   ar
     7    14    15   ar
     8    15    16    1
     9    15    17   ar
    10    17    18   ar
    11     2     3   ar
    12     3     4   ar
    13     4     5   ar
    14     5     6   ar
    15     6     7   ar
    16     7     8    1
    17     7     9   ar
    18     9    26    1
    19    26    27    1
    20    27    28    1
    21    28    29    1
    22    29    30    1
    23    30    31    1
    24    31    32    1
    25     9    10   ar
    26    21    22   am
    27    22    23    1
    28    23    24    1
    29    24    25    1
    30    10     1   ar
    31    25    22    1
    32    18    12   ar
    33    10     4   ar
    34    32    27    1
    35    16    19    1
    36     8    11    1
@<TRIPOS>MOLECULE
*****
 32 36 0 0 0
SMALL
GASTEIGER

@<TRIPOS>ATOM
      1 C         140.4200  141.3497  165.5632 C.ar    1  UNL1        0.0923
      2 C         140.6488  142.0012  166.8948 C.ar    1  UNL1        0.1671
      3 O         139.9396  143.3230  166.8920 O.2     1  UNL1       -0.4518
      4 C         139.2725  143.4883  165.5587 C.ar    1  UNL1        0.1455
      5 C         138.4331  144.5919  164.9864 C.ar    1  UNL1        0.0406
      6 C         137.8906  144.4758  163.5928 C.ar    1  UNL1        0.0395
      7 C         138.1875  143.2562  162.7716 C.ar    1  UNL1        0.1311
      8 O         137.6449  143.1402  161.3779 O.3     1  UNL1       -0.5058
      9 C         139.0269  142.1527  163.3439 C.ar    1  UNL1        0.0308
     10 C         139.5694  142.2688  164.7375 C.ar    1  UNL1        0.0422
     11 H         137.1205  143.8296  161.0204 H       1  UNL1        0.2922
     12 C         141.4467  141.4311  168.0298 C.ar    1  UNL1        0.1161
     13 C         142.6250  142.1849  168.5713 C.ar    1  UNL1        0.0254
     14 C         143.4229  141.6148  169.7064 C.ar    1  UNL1        0.0399
     15 C         143.0424  140.2908  170.2999 C.ar    1  UNL1        0.1528
     16 O         143.8403  139.7207  171.4350 O.3     1  UNL1       -0.5039
     17 C         141.8641  139.5370  169.7584 C.ar    1  UNL1        0.1354
     18 N         141.0663  140.1071  168.6234 N.ar    1  UNL1       -0.2376
     19 H         144.5764  140.1916  171.7732 H       1  UNL1        0.2923
     20 O         140.0443  138.8172  165.1210 O.2     1  UNL1       -0.2698
     21 C         140.9489  140.0136  165.1328 C.2     1  UNL1        0.2521
     22 N         142.3826  139.8739  164.7142 N.am    1  UNL1       -0.2759
     23 C         143.2428  138.7413  164.2378 C.3     1  UNL1        0.0955
     24 C         144.4100  139.6765  164.1223 C.3     1  UNL1        0.0430
     25 C         143.5497  140.8091  164.5988 C.3     1  UNL1        0.0955
     26 C         139.3237  140.9331  162.5226 C.3     1  UNL1        0.1023
     27 N         140.6550  140.7901  161.8464 N.3     1  UNL1       -0.2689
     28 C         141.5574  141.9803  161.7075 C.3     1  UNL1        0.0724
     29 C         142.8886  141.8372  161.0313 C.3     1  UNL1        0.0174
     30 C         143.3176  140.5040  160.4941 C.3     1  UNL1        0.0029
     31 C         142.4153  139.3139  160.6330 C.3     1  UNL1        0.0174
     32 C         141.0839  139.4569  161.3092 C.3     1  UNL1        0.0724
@<TRIPOS>BOND
     1    20    21    2
     2    21     1    1
     3     1     2   ar
     4     2    12    1
     5    12    13   ar
     6    13    14   ar
     7    14    15   ar
     8    15    16    1
     9    15    17   ar
    10    17    18   ar
    11     2     3   ar
    12     3     4   ar
    13     4     5   ar
    14     5     6   ar
    15     6     7   ar
    16     7     8    1
    17     7     9   ar
    18     9    26    1
    19    26    27    1
    20    27    28    1
    21    28    29    1
    22    29    30    1
    23    30    31    1
    24    31    32    1
    25     9    10   ar
    26    21    22   am
    27    22    23    1
    28    23    24    1
    29    24    25    1
    30    10     1   ar
    31    25    22    1
    32    18    12   ar
    33    10     4   ar
    34    32    27    1
    35    16    19    1
    36     8    11    1
@<TRIPOS>MOLECULE
*****
 32 36 0 0 0
SMALL
GASTEIGER

@<TRIPOS>ATOM
      1 C         141.3341  140.6259  163.6492 C.ar    1  UNL1        0.0923
      2 C         141.3364  139.7991  164.9007 C.ar    1  UNL1        0.1671
      3 O         142.7556  139.6716  165.3694 O.2     1  UNL1       -0.4518
      4 C         143.6304  140.4197  164.4076 C.ar    1  UNL1        0.1455
      5 C         145.1134  140.6400  164.3626 C.ar    1  UNL1        0.0406
      6 C         145.7179  141.4501  163.2544 C.ar    1  UNL1        0.0395
      7 C         144.8394  142.0399  162.1912 C.ar    1  UNL1        0.1311
      8 O         145.4440  142.8501  161.0829 O.3     1  UNL1       -0.5058
      9 C         143.3564  141.8196  162.2362 C.ar    1  UNL1        0.0308
     10 C         142.7519  141.0095  163.3445 C.ar    1  UNL1        0.0422
     11 H         146.3704  142.9877  161.0548 H       1  UNL1        0.2922
     12 C         140.1311  139.2041  165.5666 C.ar    1  UNL1        0.1161
     13 C         139.5112  139.8906  166.7474 C.ar    1  UNL1        0.0254
     14 C         138.3060  139.2957  167.4133 C.ar    1  UNL1        0.0399
     15 C         137.7206  138.0143  166.8983 C.ar    1  UNL1        0.1528
     16 O         136.5153  137.4194  167.5642 O.3     1  UNL1       -0.5039
     17 C         138.3405  137.3278  165.7175 C.ar    1  UNL1        0.1354
     18 N         139.5457  137.9227  165.0516 N.ar    1  UNL1       -0.2376
     19 H         136.1281  137.8482  168.3018 H       1  UNL1        0.2923
     20 O         139.8460  140.3108  161.5430 O.2     1  UNL1       -0.2698
     21 C         140.1262  141.0031  162.8438 C.2     1  UNL1        0.2521
     22 N         139.1984  142.0726  163.3393 N.am    1  UNL1       -0.2759
     23 C         137.9349  142.7001  162.8297 C.3     1  UNL1        0.0955
     24 C         137.8864  143.5850  164.0400 C.3     1  UNL1        0.0430
     25 C         139.1499  142.9575  164.5495 C.3     1  UNL1        0.0955
     26 C         142.4779  142.4094  161.1730 C.3     1  UNL1        0.1023
     27 N         141.6841  143.6496  161.4588 N.3     1  UNL1       -0.2689
     28 C         141.9415  144.4327  162.7121 C.3     1  UNL1        0.0724
     29 C         141.1477  145.6729  162.9979 C.3     1  UNL1        0.0174
     30 C         140.0965  146.1301  162.0304 C.3     1  UNL1        0.0029
     31 C         139.8391  145.3471  160.7772 C.3     1  UNL1        0.0174
     32 C         140.6329  144.1068  160.4914 C.3     1  UNL1        0.0724
@<TRIPOS>BOND
     1    20    21    2
     2    21     1    1
     3     1     2   ar
     4     2    12    1
     5    12    13   ar
     6    13    14   ar
     7    14    15   ar
     8    15    16    1
     9    15    17   ar
    10    17    18   ar
    11     2     3   ar
    12     3     4   ar
    13     4     5   ar
    14     5     6   ar
    15     6     7   ar
    16     7     8    1
    17     7     9   ar
    18     9    26    1
    19    26    27    1
    20    27    28    1
    21    28    29    1
    22    29    30    1
    23    30    31    1
    24    31    32    1
    25     9    10   ar
    26    21    22   am
    27    22    23    1
    28    23    24    1
    29    24    25    1
    30    10     1   ar
    31    25    22    1
    32    18    12   ar
    33    10     4   ar
    34    32    27    1
    35    16    19    1
    36     8    11    1
@<TRIPOS>MOLECULE
*****
 32 36 0 0 0
SMALL
GASTEIGER

@<TRIPOS>ATOM
      1 C         142.0895  142.9421  165.5464 C.ar    1  UNL1        0.0923
      2 C         141.3819  142.5096  166.7962 C.ar    1  UNL1        0.1671
      3 O         139.9547  142.9614  166.7007 O.2     1  UNL1       -0.4518
      4 C         139.7804  143.6731  165.3919 C.ar    1  UNL1        0.1455
      5 C         138.5907  144.3305  164.7575 C.ar    1  UNL1        0.0406
      6 C         138.7204  144.9760  163.4098 C.ar    1  UNL1        0.0395
      7 C         140.0398  144.9641  162.6964 C.ar    1  UNL1        0.1311
      8 O         140.1695  145.6097  161.3486 O.3     1  UNL1       -0.5058
      9 C         141.2295  144.3067  163.3307 C.ar    1  UNL1        0.0308
     10 C         141.0998  143.6612  164.6785 C.ar    1  UNL1        0.0422
     11 H         139.4263  146.0203  160.9523 H       1  UNL1        0.2922
     12 C         141.9938  141.7574  167.9406 C.ar    1  UNL1        0.1161
     13 C         142.9471  142.4497  168.8690 C.ar    1  UNL1        0.0254
     14 C         143.5591  141.6975  170.0134 C.ar    1  UNL1        0.0399
     15 C         143.2178  140.2529  170.2294 C.ar    1  UNL1        0.1528
     16 O         143.8298  139.5007  171.3737 O.3     1  UNL1       -0.5039
     17 C         142.2646  139.5606  169.3010 C.ar    1  UNL1        0.1354
     18 N         141.6526  140.3128  168.1566 N.ar    1  UNL1       -0.2376
     19 H         144.4253  139.9332  171.9537 H       1  UNL1        0.2923
     20 O         144.5639  143.7342  165.5609 O.2     1  UNL1       -0.2698
     21 C         143.5335  142.6984  165.2215 C.2     1  UNL1        0.2521
     22 N         143.9471  141.4186  164.5571 N.am    1  UNL1       -0.2759
     23 C         145.2497  140.8372  164.0933 C.3     1  UNL1        0.0955
     24 C         144.5320  139.6089  163.6177 C.3     1  UNL1        0.0430
     25 C         143.2294  140.1904  164.0815 C.3     1  UNL1        0.0955
     26 C         142.5490  144.2949  162.6173 C.3     1  UNL1        0.1023
     27 N         142.9070  143.1461  161.7217 N.3     1  UNL1       -0.2689
     28 C         144.3114  142.9992  161.2154 C.3     1  UNL1        0.0724
     29 C         144.6694  141.8504  160.3199 C.3     1  UNL1        0.0174
     30 C         143.6232  140.8485  159.9306 C.3     1  UNL1        0.0029
     31 C         142.2189  140.9954  160.4368 C.3     1  UNL1        0.0174
     32 C         141.8608  142.1442  161.3324 C.3     1  UNL1        0.0724
@<TRIPOS>BOND
     1    20    21    2
     2    21     1    1
     3     1     2   ar
     4     2    12    1
     5    12    13   ar
     6    13    14   ar
     7    14    15   ar
     8    15    16    1
     9    15    17   ar
    10    17    18   ar
    11     2     3   ar
    12     3     4   ar
    13     4     5   ar
    14     5     6   ar
    15     6     7   ar
    16     7     8    1
    17     7     9   ar
    18     9    26    1
    19    26    27    1
    20    27    28    1
    21    28    29    1
    22    29    30    1
    23    30    31    1
    24    31    32    1
    25     9    10   ar
    26    21    22   am
    27    22    23    1
    28    23    24    1
    29    24    25    1
    30    10     1   ar
    31    25    22    1
    32    18    12   ar
    33    10     4   ar
    34    32    27    1
    35    16    19    1
    36     8    11    1
@<TRIPOS>MOLECULE
*****
 32 36 0 0 0
SMALL
GASTEIGER

@<TRIPOS>ATOM
      1 C         141.5042  142.8320  165.4517 C.ar    1  UNL1        0.0923
      2 C         140.4491  142.9918  166.5058 C.ar    1  UNL1        0.1671
      3 O         139.3988  143.9209  165.9732 O.2     1  UNL1       -0.4518
      4 C         139.8048  144.3353  164.5900 C.ar    1  UNL1        0.1455
      5 C         139.1578  145.2385  163.5823 C.ar    1  UNL1        0.0406
      6 C         139.8120  145.4688  162.2523 C.ar    1  UNL1        0.0395
      7 C         141.1133  144.7958  161.9300 C.ar    1  UNL1        0.1311
      8 O         141.7675  145.0261  160.5999 O.3     1  UNL1       -0.5058
      9 C         141.7603  143.8926  162.9377 C.ar    1  UNL1        0.0308
     10 C         141.1061  143.6624  164.2677 C.ar    1  UNL1        0.0422
     11 H         141.3633  145.5904  159.9704 H       1  UNL1        0.2922
     12 C         140.4449  142.3373  167.8555 C.ar    1  UNL1        0.1161
     13 C         140.6024  143.1699  169.0932 C.ar    1  UNL1        0.0254
     14 C         140.5982  142.5155  170.4429 C.ar    1  UNL1        0.0399
     15 C         140.4366  141.0285  170.5549 C.ar    1  UNL1        0.1528
     16 O         140.4324  140.3740  171.9046 O.3     1  UNL1       -0.5039
     17 C         140.2791  140.1959  169.3172 C.ar    1  UNL1        0.1354
     18 N         140.2833  140.8503  167.9675 N.ar    1  UNL1       -0.2376
     19 H         140.5308  140.8942  172.6778 H       1  UNL1        0.2923
     20 O         144.0438  142.6188  165.9567 O.2     1  UNL1       -0.2698
     21 C         142.7405  141.9898  165.5623 C.2     1  UNL1        0.2521
     22 N         142.6734  140.5183  165.2784 N.am    1  UNL1       -0.2759
     23 C         143.6628  139.3909  165.2838 C.3     1  UNL1        0.0955
     24 C         142.5786  138.4376  164.8769 C.3     1  UNL1        0.0430
     25 C         141.5892  139.5649  164.8715 C.3     1  UNL1        0.0955
     26 C         143.0616  143.2197  162.6154 C.3     1  UNL1        0.1023
     27 N         143.0697  141.8127  162.0955 N.3     1  UNL1       -0.2689
     28 C         141.8020  141.1944  161.5848 C.3     1  UNL1        0.0724
     29 C         141.8101  139.7875  161.0649 C.3     1  UNL1        0.0174
     30 C         143.0860  138.9987  161.0557 C.3     1  UNL1        0.0029
     31 C         144.3536  139.6169  161.5663 C.3     1  UNL1        0.0174
     32 C         144.3455  141.0239  162.0863 C.3     1  UNL1        0.0724
@<TRIPOS>BOND
     1    20    21    2
     2    21     1    1
     3     1     2   ar
     4     2    12    1
     5    12    13   ar
     6    13    14   ar
     7    14    15   ar
     8    15    16    1
     9    15    17   ar
    10    17    18   ar
    11     2     3   ar
    12     3     4   ar
    13     4     5   ar
    14     5     6   ar
    15     6     7   ar
    16     7     8    1
    17     7     9   ar
    18     9    26    1
    19    26    27    1
    20    27    28    1
    21    28    29    1
    22    29    30    1
    23    30    31    1
    24    31    32    1
    25     9    10   ar
    26    21    22   am
    27    22    23    1
    28    23    24    1
    29    24    25    1
    30    10     1   ar
    31    25    22    1
    32    18    12   ar
    33    10     4   ar
    34    32    27    1
    35    16    19    1
    36     8    11    1
@<TRIPOS>MOLECULE
*****
 32 36 0 0 0
SMALL
GASTEIGER

@<TRIPOS>ATOM
      1 C         142.4713  140.4605  165.4641 C.ar    1  UNL1        0.0923
      2 C         142.7524  141.3501  166.6387 C.ar    1  UNL1        0.1671
      3 O         143.6171  142.4814  166.1668 O.2     1  UNL1       -0.4518
      4 C         143.8703  142.2909  164.7007 C.ar    1  UNL1        0.1455
      5 C         144.6543  143.0934  163.7050 C.ar    1  UNL1        0.0406
      6 C         144.7301  142.6469  162.2750 C.ar    1  UNL1        0.0395
      7 C         144.0220  141.3979  161.8408 C.ar    1  UNL1        0.1311
      8 O         144.0978  140.9514  160.4107 O.3     1  UNL1       -0.5058
      9 C         143.2381  140.5954  162.8364 C.ar    1  UNL1        0.0308
     10 C         143.1622  141.0419  164.2664 C.ar    1  UNL1        0.0422
     11 H         144.5875  141.4527  159.7887 H       1  UNL1        0.2922
     12 C         142.2560  141.1446  168.0392 C.ar    1  UNL1        0.1161
     13 C         141.0685  141.9154  168.5347 C.ar    1  UNL1        0.0254
     14 C         140.5721  141.7099  169.9352 C.ar    1  UNL1        0.0399
     15 C         141.2632  140.7335  170.8401 C.ar    1  UNL1        0.1528
     16 O         140.7668  140.5280  172.2406 O.3     1  UNL1       -0.5039
     17 C         142.4507  139.9627  170.3446 C.ar    1  UNL1        0.1354
     18 N         142.9471  140.1682  168.9441 N.ar    1  UNL1       -0.2376
     19 H         140.0250  141.0095  172.5502 H       1  UNL1        0.2923
     20 O         142.3118  137.8680  165.4077 O.2     1  UNL1       -0.2698
     21 C         141.6445  139.2091  165.4839 C.2     1  UNL1        0.2521
     22 N         140.1502  139.2989  165.5797 N.am    1  UNL1       -0.2759
     23 C         139.0285  138.3040  165.6245 C.3     1  UNL1        0.0955
     24 C         138.0371  139.4260  165.7153 C.3     1  UNL1        0.0430
     25 C         139.1587  140.4209  165.6705 C.3     1  UNL1        0.0955
     26 C         142.5299  139.3464  162.4021 C.3     1  UNL1        0.1023
     27 N         141.0422  139.3556  162.2112 N.3     1  UNL1       -0.2689
     28 C         140.3068  140.6592  162.1118 C.3     1  UNL1        0.0724
     29 C         138.8190  140.6683  161.9209 C.3     1  UNL1        0.0174
     30 C         138.0667  139.3739  161.8293 C.3     1  UNL1        0.0029
     31 C         138.8020  138.0703  161.9287 C.3     1  UNL1        0.0174
     32 C         140.2898  138.0611  162.1196 C.3     1  UNL1        0.0724
@<TRIPOS>BOND
     1    20    21    2
     2    21     1    1
     3     1     2   ar
     4     2    12    1
     5    12    13   ar
     6    13    14   ar
     7    14    15   ar
     8    15    16    1
     9    15    17   ar
    10    17    18   ar
    11     2     3   ar
    12     3     4   ar
    13     4     5   ar
    14     5     6   ar
    15     6     7   ar
    16     7     8    1
    17     7     9   ar
    18     9    26    1
    19    26    27    1
    20    27    28    1
    21    28    29    1
    22    29    30    1
    23    30    31    1
    24    31    32    1
    25     9    10   ar
    26    21    22   am
    27    22    23    1
    28    23    24    1
    29    24    25    1
    30    10     1   ar
    31    25    22    1
    32    18    12   ar
    33    10     4   ar
    34    32    27    1
    35    16    19    1
    36     8    11    1
@<TRIPOS>MOLECULE
*****
 32 36 0 0 0
SMALL
GASTEIGER

@<TRIPOS>ATOM
      1 C         140.0873  141.9906  165.2022 C.ar    1  UNL1        0.0923
      2 C         140.5453  141.2639  166.4318 C.ar    1  UNL1        0.1671
      3 O         140.1943  139.8144  166.2713 O.2     1  UNL1       -0.4518
      4 C         139.5194  139.6453  164.9424 C.ar    1  UNL1        0.1455
      5 C         138.9565  138.4404  164.2487 C.ar    1  UNL1        0.0406
      6 C         138.3274  138.5805  162.8942 C.ar    1  UNL1        0.0395
      7 C         138.2613  139.9255  162.2335 C.ar    1  UNL1        0.1311
      8 O         137.6322  140.0655  160.8789 O.3     1  UNL1       -0.5058
      9 C         138.8242  141.1304  162.9272 C.ar    1  UNL1        0.0308
     10 C         139.4532  140.9903  164.2817 C.ar    1  UNL1        0.0422
     11 H         137.2806  139.3129  160.4456 H       1  UNL1        0.2922
     12 C         141.2335  141.8786  167.6144 C.ar    1  UNL1        0.1161
     13 C         140.4612  142.7446  168.5650 C.ar    1  UNL1        0.0254
     14 C         141.1494  143.3594  169.7475 C.ar    1  UNL1        0.0399
     15 C         142.6098  143.1082  169.9795 C.ar    1  UNL1        0.1528
     16 O         143.2980  143.7230  171.1621 O.3     1  UNL1       -0.5039
     17 C         143.3821  142.2423  169.0290 C.ar    1  UNL1        0.1354
     18 N         142.6940  141.6275  167.8464 N.ar    1  UNL1       -0.2376
     19 H         142.8156  144.2640  171.7559 H       1  UNL1        0.2923
     20 O         139.1356  144.4054  165.3165 O.2     1  UNL1       -0.2698
     21 C         140.2370  143.4598  164.9392 C.2     1  UNL1        0.2521
     22 N         141.4884  143.9833  164.2987 N.am    1  UNL1       -0.2759
     23 C         141.9846  145.3393  163.8926 C.3     1  UNL1        0.0955
     24 C         143.2580  144.7237  163.3931 C.3     1  UNL1        0.0430
     25 C         142.7618  143.3677  163.7992 C.3     1  UNL1        0.0955
     26 C         138.7581  142.4754  162.2664 C.3     1  UNL1        0.1023
     27 N         139.8961  142.9475  161.4109 N.3     1  UNL1       -0.2689
     28 C         139.9843  144.3901  161.0093 C.3     1  UNL1        0.0724
     29 C         141.1224  144.8622  160.1538 C.3     1  UNL1        0.0174
     30 C         142.1722  143.8918  159.6998 C.3     1  UNL1        0.0029
     31 C         142.0840  142.4492  160.1014 C.3     1  UNL1        0.0174
     32 C         140.9459  141.9771  160.9569 C.3     1  UNL1        0.0724
@<TRIPOS>BOND
     1    20    21    2
     2    21     1    1
     3     1     2   ar
     4     2    12    1
     5    12    13   ar
     6    13    14   ar
     7    14    15   ar
     8    15    16    1
     9    15    17   ar
    10    17    18   ar
    11     2     3   ar
    12     3     4   ar
    13     4     5   ar
    14     5     6   ar
    15     6     7   ar
    16     7     8    1
    17     7     9   ar
    18     9    26    1
    19    26    27    1
    20    27    28    1
    21    28    29    1
    22    29    30    1
    23    30    31    1
    24    31    32    1
    25     9    10   ar
    26    21    22   am
    27    22    23    1
    28    23    24    1
    29    24    25    1
    30    10     1   ar
    31    25    22    1
    32    18    12   ar
    33    10     4   ar
    34    32    27    1
    35    16    19    1
    36     8    11    1
@<TRIPOS>MOLECULE
*****
 32 36 0 0 0
SMALL
GASTEIGER

@<TRIPOS>ATOM
      1 C         141.0236  141.6070  165.3828 C.ar    1  UNL1        0.0923
      2 C         140.9559  142.0906  166.8011 C.ar    1  UNL1        0.1671
      3 O         140.0446  143.2814  166.8416 O.2     1  UNL1       -0.4518
      4 C         139.5492  143.5337  165.4485 C.ar    1  UNL1        0.1455
      5 C         138.6252  144.5720  164.8844 C.ar    1  UNL1        0.0406
      6 C         138.3064  144.5755  163.4187 C.ar    1  UNL1        0.0395
      7 C         138.9115  143.5406  162.5171 C.ar    1  UNL1        0.1311
      8 O         138.5926  143.5442  161.0513 O.3     1  UNL1       -0.5058
      9 C         139.8354  142.5023  163.0812 C.ar    1  UNL1        0.0308
     10 C         140.1543  142.4988  164.5468 C.ar    1  UNL1        0.0422
     11 H         138.0155  144.1928  160.6990 H       1  UNL1        0.2922
     12 C         141.6734  141.4891  167.9730 C.ar    1  UNL1        0.1161
     13 C         142.7494  142.2654  168.6726 C.ar    1  UNL1        0.0254
     14 C         143.4669  141.6639  169.8445 C.ar    1  UNL1        0.0399
     15 C         143.1084  140.2861  170.3168 C.ar    1  UNL1        0.1528
     16 O         143.8260  139.6846  171.4887 O.3     1  UNL1       -0.5039
     17 C         142.0325  139.5098  169.6171 C.ar    1  UNL1        0.1354
     18 N         141.3149  140.1113  168.4452 N.ar    1  UNL1       -0.2376
     19 H         144.4981  140.1696  171.9257 H       1  UNL1        0.2923
     20 O         143.2519  140.6235  164.4786 O.2     1  UNL1       -0.2698
     21 C         141.8209  140.4369  164.8874 C.2     1  UNL1        0.2521
     22 N         141.1869  139.0802  164.8007 N.am    1  UNL1       -0.2759
     23 C         141.6484  137.7194  164.3704 C.3     1  UNL1        0.0955
     24 C         140.2904  137.1616  164.6782 C.3     1  UNL1        0.0430
     25 C         139.8289  138.5224  165.1086 C.3     1  UNL1        0.0955
     26 C         140.4405  141.4675  162.1795 C.3     1  UNL1        0.1023
     27 N         141.4521  141.8706  161.1480 N.3     1  UNL1       -0.2689
     28 C         141.2322  141.5225  159.7056 C.3     1  UNL1        0.0724
     29 C         142.2438  141.9256  158.6740 C.3     1  UNL1        0.0174
     30 C         143.4754  142.6769  159.0848 C.3     1  UNL1        0.0029
     31 C         143.6954  143.0251  160.5272 C.3     1  UNL1        0.0174
     32 C         142.6837  142.6219  161.5588 C.3     1  UNL1        0.0724
@<TRIPOS>BOND
     1    20    21    2
     2    21     1    1
     3     1     2   ar
     4     2    12    1
     5    12    13   ar
     6    13    14   ar
     7    14    15   ar
     8    15    16    1
     9    15    17   ar
    10    17    18   ar
    11     2     3   ar
    12     3     4   ar
    13     4     5   ar
    14     5     6   ar
    15     6     7   ar
    16     7     8    1
    17     7     9   ar
    18     9    26    1
    19    26    27    1
    20    27    28    1
    21    28    29    1
    22    29    30    1
    23    30    31    1
    24    31    32    1
    25     9    10   ar
    26    21    22   am
    27    22    23    1
    28    23    24    1
    29    24    25    1
    30    10     1   ar
    31    25    22    1
    32    18    12   ar
    33    10     4   ar
    34    32    27    1
    35    16    19    1
    36     8    11    1
@<TRIPOS>MOLECULE
*****
 32 36 0 0 0
SMALL
GASTEIGER

@<TRIPOS>ATOM
      1 C         140.8787  140.4470  165.0894 C.ar    1  UNL1        0.0923
      2 C         140.5342  139.5903  166.2715 C.ar    1  UNL1        0.1671
      3 O         139.7262  138.4259  165.7804 O.2     1  UNL1       -0.4518
      4 C         139.5713  138.5629  164.2947 C.ar    1  UNL1        0.1455
      5 C         138.8737  137.7116  163.2756 C.ar    1  UNL1        0.0406
      6 C         138.8883  138.1095  161.8294 C.ar    1  UNL1        0.0395
      7 C         139.6006  139.3586  161.4024 C.ar    1  UNL1        0.1311
      8 O         139.6152  139.7564  159.9561 O.3     1  UNL1       -0.5058
      9 C         140.2982  140.2099  162.4215 C.ar    1  UNL1        0.0308
     10 C         140.2836  139.8120  163.8676 C.ar    1  UNL1        0.0422
     11 H         139.1795  139.2246  159.3195 H       1  UNL1        0.2922
     12 C         140.9285  139.8521  167.6949 C.ar    1  UNL1        0.1161
     13 C         142.3764  140.0040  168.0563 C.ar    1  UNL1        0.0254
     14 C         142.7707  140.2658  169.4796 C.ar    1  UNL1        0.0399
     15 C         141.7172  140.3757  170.5417 C.ar    1  UNL1        0.1528
     16 O         142.1115  140.6375  171.9650 O.3     1  UNL1       -0.5039
     17 C         140.2693  140.2238  170.1803 C.ar    1  UNL1        0.1354
     18 N         139.8750  139.9620  168.7569 N.ar    1  UNL1       -0.2376
     19 H         143.0159  140.7324  172.1907 H       1  UNL1        0.2923
     20 O         141.0325  142.9975  165.5598 O.2     1  UNL1       -0.2698
     21 C         141.6779  141.7159  165.1231 C.2     1  UNL1        0.2521
     22 N         143.1228  141.7031  164.7199 N.am    1  UNL1       -0.2759
     23 C         144.2071  142.7353  164.6269 C.3     1  UNL1        0.0955
     24 C         145.1659  141.6850  164.1498 C.3     1  UNL1        0.0430
     25 C         144.0816  140.6528  164.2428 C.3     1  UNL1        0.0955
     26 C         141.0105  141.4590  161.9944 C.3     1  UNL1        0.1023
     27 N         140.3740  142.7988  162.2173 N.3     1  UNL1       -0.2689
     28 C         138.9142  142.8895  162.5503 C.3     1  UNL1        0.0724
     29 C         138.2777  144.2294  162.7732 C.3     1  UNL1        0.0174
     30 C         139.1009  145.4784  162.6631 C.3     1  UNL1        0.0029
     31 C         140.5606  145.3877  162.3301 C.3     1  UNL1        0.0174
     32 C         141.1972  144.0479  162.1072 C.3     1  UNL1        0.0724
@<TRIPOS>BOND
     1    20    21    2
     2    21     1    1
     3     1     2   ar
     4     2    12    1
     5    12    13   ar
     6    13    14   ar
     7    14    15   ar
     8    15    16    1
     9    15    17   ar
    10    17    18   ar
    11     2     3   ar
    12     3     4   ar
    13     4     5   ar
    14     5     6   ar
    15     6     7   ar
    16     7     8    1
    17     7     9   ar
    18     9    26    1
    19    26    27    1
    20    27    28    1
    21    28    29    1
    22    29    30    1
    23    30    31    1
    24    31    32    1
    25     9    10   ar
    26    21    22   am
    27    22    23    1
    28    23    24    1
    29    24    25    1
    30    10     1   ar
    31    25    22    1
    32    18    12   ar
    33    10     4   ar
    34    32    27    1
    35    16    19    1
    36     8    11    1
