@<TRIPOS>MOLECULE
*****
 35 38 0 0 0
SMALL
GASTEIGER

@<TRIPOS>ATOM
      1 C         141.4301  138.4009  161.8357 C.2     1  UNL1        0.2685
      2 O         140.9533  137.1946  162.5890 O.2     1  UNL1       -0.2682
      3 N         141.7277  139.6745  162.5701 N.am    1  UNL1       -0.2723
      4 C         141.5485  139.7419  164.0578 C.3     1  UNL1        0.0761
      5 C         140.2515  139.9536  164.7809 C.3     1  UNL1        0.0213
      6 C         140.5363  139.9519  166.2536 C.3     1  UNL1        0.0190
      7 C         139.9107  140.0817  167.6108 C.3     1  UNL1        0.0722
      8 N         140.9971  139.9491  168.6366 N.3     1  UNL1       -0.2707
      9 C         142.2941  139.7374  167.9134 C.3     1  UNL1        0.0722
     10 C         142.0093  139.7391  166.4407 C.3     1  UNL1        0.0190
     11 C         142.6349  139.6092  165.0836 C.3     1  UNL1        0.0213
     12 C         140.8179  140.0165  170.1243 C.3     1  UNL1        0.0993
     13 C         141.4662  141.1185  170.9087 C.3     1  UNL1        0.1031
     14 C         142.6742  140.2554  171.1227 C.3     1  UNL1        0.0307
     15 C         140.2583  141.9816  170.6947 C.3     1  UNL1        0.0307
     16 O         142.1146  142.2205  171.6931 O.3     1  UNL1       -0.3854
     17 H         142.9908  141.9319  171.9927 H       1  UNL1        0.2103
     18 C         140.4860  138.6596  156.6470 C.3     1  UNL1        0.1321
     19 N         141.1754  138.4525  157.9630 N.ar    1  UNL1       -0.3057
     20 C         142.5951  138.0076  158.1541 C.ar    1  UNL1        0.1787
     21 N         142.8632  137.9341  159.6282 N.ar    1  UNL1       -0.2192
     22 C         141.6093  138.3336  160.3479 C.ar    1  UNL1        0.1535
     23 C         140.5662  138.6540  159.3188 C.ar    1  UNL1        0.1012
     24 C         142.2044  140.8808  161.8167 C.3     1  UNL1        0.1205
     25 C         142.1753  142.2317  162.4680 C.ar    1  UNL1        0.0007
     26 C         143.4308  142.8114  163.0491 C.ar    1  UNL1       -0.0024
     27 C         143.4017  144.1623  163.7004 C.ar    1  UNL1        0.0028
     28 C         142.1171  144.9335  163.7707 C.ar    1  UNL1        0.0372
     29 C         140.8615  144.3538  163.1897 C.ar    1  UNL1        0.1465
     30 C         140.8906  143.0029  162.5384 C.ar    1  UNL1        0.0346
     31 O         139.5768  145.1250  163.2600 O.3     1  UNL1       -0.4045
     32 C         138.4433  144.6187  164.1019 C.3     1  UNL1        0.5753
     33 F         137.3097  144.1124  164.9439 F       1  UNL1       -0.1328
     34 F         139.1382  145.1143  165.3354 F       1  UNL1       -0.1328
     35 F         137.7485  144.1231  162.8684 F       1  UNL1       -0.1328
@<TRIPOS>BOND
     1    18    19    1
     2    19    20   ar
     3    20    21   ar
     4    21    22   ar
     5    22     1    1
     6     1     2    2
     7     1     3   am
     8     3    24    1
     9    24    25    1
    10    25    26   ar
    11    26    27   ar
    12    27    28   ar
    13    28    29   ar
    14    29    31    1
    15    31    32    1
    16    32    33    1
    17    32    34    1
    18    32    35    1
    19    29    30   ar
    20     4     3    1
    21     4     5    1
    22     6     5    1
    23     6     7    1
    24     7     8    1
    25     8    12    1
    26    12    13    1
    27    13    14    1
    28    13    15    1
    29    13    16    1
    30     8     9    1
    31    10     9    1
    32    10    11    1
    33    22    23   ar
    34    23    19   ar
    35    30    25   ar
    36    11     4    1
    37    10     6    1
    38    16    17    1
@<TRIPOS>MOLECULE
*****
 35 38 0 0 0
SMALL
GASTEIGER

@<TRIPOS>ATOM
      1 C         141.1488  144.5890  161.0948 C.2     1  UNL1        0.2685
      2 O         140.7862  145.6654  162.0745 O.2     1  UNL1       -0.2682
      3 N         141.5934  143.2442  161.5886 N.am    1  UNL1       -0.2723
      4 C         141.6754  142.9758  163.0621 C.3     1  UNL1        0.0761
      5 C         140.5227  142.6473  163.9639 C.3     1  UNL1        0.0213
      6 C         141.0595  142.4572  165.3516 C.3     1  UNL1        0.0190
      7 C         140.6788  142.1367  166.7667 C.3     1  UNL1        0.0722
      8 N         141.9280  142.1496  167.5971 N.3     1  UNL1       -0.2707
      9 C         143.0807  142.4782  166.6951 C.3     1  UNL1        0.0722
     10 C         142.5439  142.6682  165.3074 C.3     1  UNL1        0.0190
     11 C         142.9246  142.9887  163.8924 C.3     1  UNL1        0.0213
     12 C         142.0101  141.8812  169.0705 C.3     1  UNL1        0.0993
     13 C         142.4878  142.9547  170.0029 C.3     1  UNL1        0.1031
     14 C         141.1219  143.5743  169.9895 C.3     1  UNL1        0.0307
     15 C         143.8538  142.3350  170.0165 C.3     1  UNL1        0.0307
     16 O         142.9656  144.0281  170.9354 O.3     1  UNL1       -0.3854
     17 H         142.2358  144.6373  171.1282 H       1  UNL1        0.2103
     18 C         139.4387  144.7145  156.1007 C.3     1  UNL1        0.1321
     19 N         140.2808  144.9151  157.3258 N.ar    1  UNL1       -0.3057
     20 C         141.6006  145.6256  157.3817 C.ar    1  UNL1        0.1787
     21 N         142.0864  145.5900  158.8005 N.ar    1  UNL1       -0.2192
     22 C         141.0668  144.8573  159.6212 C.ar    1  UNL1        0.1535
     23 C         139.9509  144.4402  158.7099 C.ar    1  UNL1        0.1012
     24 C         141.9560  142.1678  160.6088 C.3     1  UNL1        0.1205
     25 C         142.3338  140.8021  161.1008 C.ar    1  UNL1        0.0007
     26 C         143.7764  140.4594  161.3282 C.ar    1  UNL1       -0.0024
     27 C         144.1542  139.0937  161.8202 C.ar    1  UNL1        0.0028
     28 C         143.0896  138.0707  162.0849 C.ar    1  UNL1        0.0372
     29 C         141.6470  138.4134  161.8575 C.ar    1  UNL1        0.1465
     30 C         141.2692  139.7791  161.3655 C.ar    1  UNL1        0.0346
     31 O         140.5824  137.3904  162.1222 O.3     1  UNL1       -0.4045
     32 C         139.5850  137.6128  163.2203 C.3     1  UNL1        0.5753
     33 F         138.5876  137.8353  164.3184 F       1  UNL1       -0.1328
     34 F         140.6392  137.3012  164.2409 F       1  UNL1       -0.1328
     35 F         138.5309  137.9245  162.1997 F       1  UNL1       -0.1328
@<TRIPOS>BOND
     1    18    19    1
     2    19    20   ar
     3    20    21   ar
     4    21    22   ar
     5    22     1    1
     6     1     2    2
     7     1     3   am
     8     3    24    1
     9    24    25    1
    10    25    26   ar
    11    26    27   ar
    12    27    28   ar
    13    28    29   ar
    14    29    31    1
    15    31    32    1
    16    32    33    1
    17    32    34    1
    18    32    35    1
    19    29    30   ar
    20     4     3    1
    21     4     5    1
    22     6     5    1
    23     6     7    1
    24     7     8    1
    25     8    12    1
    26    12    13    1
    27    13    14    1
    28    13    15    1
    29    13    16    1
    30     8     9    1
    31    10     9    1
    32    10    11    1
    33    22    23   ar
    34    23    19   ar
    35    30    25   ar
    36    11     4    1
    37    10     6    1
    38    16    17    1
@<TRIPOS>MOLECULE
*****
 35 38 0 0 0
SMALL
GASTEIGER

@<TRIPOS>ATOM
      1 C         138.3528  141.5980  161.7251 C.2     1  UNL1        0.2685
      2 O         137.1567  142.0065  162.5328 O.2     1  UNL1       -0.2682
      3 N         139.5784  141.0734  162.4127 N.am    1  UNL1       -0.2723
      4 C         139.6079  140.9573  163.9079 C.3     1  UNL1        0.0761
      5 C         139.0629  139.8161  164.7145 C.3     1  UNL1        0.0213
      6 C         139.3058  140.1156  166.1641 C.3     1  UNL1        0.0190
      7 C         139.1191  139.5954  167.5586 C.3     1  UNL1        0.0722
      8 N         139.6987  140.6001  168.5097 N.3     1  UNL1       -0.2707
      9 C         140.2437  141.7414  167.7030 C.3     1  UNL1        0.0722
     10 C         140.0009  141.4419  166.2534 C.3     1  UNL1        0.0190
     11 C         140.1876  141.9621  164.8589 C.3     1  UNL1        0.0213
     12 C         139.7282  140.4841  170.0048 C.3     1  UNL1        0.0993
     13 C         141.0048  140.7346  170.7515 C.3     1  UNL1        0.1031
     14 C         140.4491  142.0289  171.2673 C.3     1  UNL1        0.0307
     15 C         141.5606  139.4404  170.2358 C.3     1  UNL1        0.0307
     16 O         142.2815  140.9852  171.4982 O.3     1  UNL1       -0.3854
     17 H         142.2178  141.8283  171.9736 H       1  UNL1        0.2103
     18 C         137.9538  140.3873  156.6011 C.3     1  UNL1        0.1321
     19 N         138.1400  141.1577  157.8747 N.ar    1  UNL1       -0.3057
     20 C         138.4164  142.6279  157.9833 C.ar    1  UNL1        0.1787
     21 N         138.5297  142.9718  159.4390 N.ar    1  UNL1       -0.2192
     22 C         138.3234  141.7141  160.2299 C.ar    1  UNL1        0.1535
     23 C         138.0826  140.5929  159.2631 C.ar    1  UNL1        0.1012
     24 C         140.7745  140.6649  161.6049 C.3     1  UNL1        0.1205
     25 C         142.1202  140.5578  162.2590 C.ar    1  UNL1        0.0007
     26 C         142.7129  139.2086  162.5387 C.ar    1  UNL1       -0.0024
     27 C         144.0585  139.1015  163.1928 C.ar    1  UNL1        0.0028
     28 C         144.8115  140.3436  163.5672 C.ar    1  UNL1        0.0372
     29 C         144.2188  141.6929  163.2875 C.ar    1  UNL1        0.1465
     30 C         142.8732  141.8000  162.6334 C.ar    1  UNL1        0.0346
     31 O         144.9717  142.9350  163.6619 O.3     1  UNL1       -0.4045
     32 C         144.2249  144.1890  164.0081 C.3     1  UNL1        0.5753
     33 F         143.4781  145.4430  164.3545 F       1  UNL1       -0.1328
     34 F         144.4909  144.7270  162.6334 F       1  UNL1       -0.1328
     35 F         143.9589  143.6510  165.3828 F       1  UNL1       -0.1328
@<TRIPOS>BOND
     1    18    19    1
     2    19    20   ar
     3    20    21   ar
     4    21    22   ar
     5    22     1    1
     6     1     2    2
     7     1     3   am
     8     3    24    1
     9    24    25    1
    10    25    26   ar
    11    26    27   ar
    12    27    28   ar
    13    28    29   ar
    14    29    31    1
    15    31    32    1
    16    32    33    1
    17    32    34    1
    18    32    35    1
    19    29    30   ar
    20     4     3    1
    21     4     5    1
    22     6     5    1
    23     6     7    1
    24     7     8    1
    25     8    12    1
    26    12    13    1
    27    13    14    1
    28    13    15    1
    29    13    16    1
    30     8     9    1
    31    10     9    1
    32    10    11    1
    33    22    23   ar
    34    23    19   ar
    35    30    25   ar
    36    11     4    1
    37    10     6    1
    38    16    17    1
@<TRIPOS>MOLECULE
*****
 35 38 0 0 0
SMALL
GASTEIGER

@<TRIPOS>ATOM
      1 C         141.0013  139.6110  165.8219 C.2     1  UNL1        0.2685
      2 O         140.0479  138.5231  165.4252 O.2     1  UNL1       -0.2682
      3 N         141.9201  140.2125  164.8002 N.am    1  UNL1       -0.2723
      4 C         141.8856  139.7260  163.3816 C.3     1  UNL1        0.0761
      5 C         140.9217  140.1688  162.3210 C.3     1  UNL1        0.0213
      6 C         141.2493  139.4278  161.0586 C.3     1  UNL1        0.0190
      7 C         140.8561  139.2435  159.6228 C.3     1  UNL1        0.0722
      8 N         141.7793  138.2290  159.0159 N.3     1  UNL1       -0.2707
      9 C         142.7432  137.7862  160.0766 C.3     1  UNL1        0.0722
     10 C         142.4156  138.5272  161.3390 C.3     1  UNL1        0.0190
     11 C         142.8088  138.7115  162.7748 C.3     1  UNL1        0.0213
     12 C         141.7448  137.7425  157.5974 C.3     1  UNL1        0.0993
     13 C         143.0202  137.6080  156.8194 C.3     1  UNL1        0.1031
     14 C         142.9115  136.1141  156.8996 C.3     1  UNL1        0.0307
     15 C         143.1290  139.1019  156.7393 C.3     1  UNL1        0.0307
     16 O         144.2956  137.4734  156.0414 O.3     1  UNL1       -0.3854
     17 H         144.5043  136.5336  155.9225 H       1  UNL1        0.2103
     18 C         139.8887  142.2641  170.2496 C.3     1  UNL1        0.1321
     19 N         140.5246  141.3169  169.2756 N.ar    1  UNL1       -0.3057
     20 C         141.6539  140.3751  169.5710 C.ar    1  UNL1        0.1787
     21 N         141.9700  139.6213  168.3132 N.ar    1  UNL1       -0.2192
     22 C         141.0359  140.0975  167.2404 C.ar    1  UNL1        0.1535
     23 C         140.1426  141.1453  167.8352 C.ar    1  UNL1        0.1012
     24 C         142.8735  141.3004  165.1970 C.3     1  UNL1        0.1205
     25 C         142.6582  142.7017  164.7073 C.ar    1  UNL1        0.0007
     26 C         143.8298  143.6199  164.5222 C.ar    1  UNL1       -0.0024
     27 C         143.6145  145.0212  164.0325 C.ar    1  UNL1        0.0028
     28 C         142.2276  145.5045  163.7278 C.ar    1  UNL1        0.0372
     29 C         141.0559  144.5864  163.9129 C.ar    1  UNL1        0.1465
     30 C         141.2712  143.1851  164.4026 C.ar    1  UNL1        0.0346
     31 O         139.6689  145.0696  163.6082 O.3     1  UNL1       -0.4045
     32 C         138.4962  144.4988  164.3491 C.3     1  UNL1        0.5753
     33 F         137.3235  143.9280  165.0901 F       1  UNL1       -0.1328
     34 F         138.1212  143.6974  163.1379 F       1  UNL1       -0.1328
     35 F         138.8713  145.3002  165.5603 F       1  UNL1       -0.1328
@<TRIPOS>BOND
     1    18    19    1
     2    19    20   ar
     3    20    21   ar
     4    21    22   ar
     5    22     1    1
     6     1     2    2
     7     1     3   am
     8     3    24    1
     9    24    25    1
    10    25    26   ar
    11    26    27   ar
    12    27    28   ar
    13    28    29   ar
    14    29    31    1
    15    31    32    1
    16    32    33    1
    17    32    34    1
    18    32    35    1
    19    29    30   ar
    20     4     3    1
    21     4     5    1
    22     6     5    1
    23     6     7    1
    24     7     8    1
    25     8    12    1
    26    12    13    1
    27    13    14    1
    28    13    15    1
    29    13    16    1
    30     8     9    1
    31    10     9    1
    32    10    11    1
    33    22    23   ar
    34    23    19   ar
    35    30    25   ar
    36    11     4    1
    37    10     6    1
    38    16    17    1
@<TRIPOS>MOLECULE
*****
 35 38 0 0 0
SMALL
GASTEIGER

@<TRIPOS>ATOM
      1 C         142.0304  144.0150  161.8513 C.2     1  UNL1        0.2685
      2 O         143.1022  144.6687  162.6722 O.2     1  UNL1       -0.2682
      3 N         141.1588  142.9573  162.4609 N.am    1  UNL1       -0.2723
      4 C         141.3591  142.5532  163.8914 C.3     1  UNL1        0.0761
      5 C         140.5879  143.0696  165.0698 C.3     1  UNL1        0.0213
      6 C         141.1179  142.3972  166.3014 C.3     1  UNL1        0.0190
      7 C         140.9689  142.3008  167.7908 C.3     1  UNL1        0.0722
      8 N         141.9756  141.3092  168.2943 N.3     1  UNL1       -0.2707
      9 C         142.7468  140.7928  167.1159 C.3     1  UNL1        0.0722
     10 C         142.2168  141.4652  165.8843 C.3     1  UNL1        0.0190
     11 C         142.3658  141.5616  164.3948 C.3     1  UNL1        0.0213
     12 C         142.1759  140.9051  169.7248 C.3     1  UNL1        0.0993
     13 C         141.3592  141.5470  170.8069 C.3     1  UNL1        0.1031
     14 C         140.3891  140.4043  170.7526 C.3     1  UNL1        0.0307
     15 C         142.3293  142.6897  170.8613 C.3     1  UNL1        0.0307
     16 O         140.5425  142.1889  171.8891 O.3     1  UNL1       -0.3854
     17 H         139.7750  141.6306  172.0893 H       1  UNL1        0.2103
     18 C         140.0682  146.2653  157.4961 C.3     1  UNL1        0.1321
     19 N         140.9282  145.4534  158.4188 N.ar    1  UNL1       -0.3057
     20 C         142.1155  144.6284  158.0195 C.ar    1  UNL1        0.1787
     21 N         142.6729  143.9891  159.2568 N.ar    1  UNL1       -0.2192
     22 C         141.8300  144.4191  160.4206 C.ar    1  UNL1        0.1535
     23 C         140.7518  145.3241  159.9028 C.ar    1  UNL1        0.1012
     24 C         140.0870  142.3038  161.6399 C.3     1  UNL1        0.1205
     25 C         139.8219  140.8346  161.7854 C.ar    1  UNL1        0.0007
     26 C         140.0578  139.9115  160.6268 C.ar    1  UNL1       -0.0024
     27 C         139.7927  138.4423  160.7723 C.ar    1  UNL1        0.0028
     28 C         139.2916  137.8961  162.0763 C.ar    1  UNL1        0.0372
     29 C         139.0556  138.8191  163.2350 C.ar    1  UNL1        0.1465
     30 C         139.3207  140.2883  163.0895 C.ar    1  UNL1        0.0346
     31 O         138.5545  138.2730  164.5390 O.3     1  UNL1       -0.4045
     32 C         139.0027  138.8882  165.8316 C.3     1  UNL1        0.5753
     33 F         139.4510  139.5034  167.1241 F       1  UNL1       -0.1328
     34 F         140.3999  138.4055  165.5768 F       1  UNL1       -0.1328
     35 F         137.6056  139.3710  166.0863 F       1  UNL1       -0.1328
@<TRIPOS>BOND
     1    18    19    1
     2    19    20   ar
     3    20    21   ar
     4    21    22   ar
     5    22     1    1
     6     1     2    2
     7     1     3   am
     8     3    24    1
     9    24    25    1
    10    25    26   ar
    11    26    27   ar
    12    27    28   ar
    13    28    29   ar
    14    29    31    1
    15    31    32    1
    16    32    33    1
    17    32    34    1
    18    32    35    1
    19    29    30   ar
    20     4     3    1
    21     4     5    1
    22     6     5    1
    23     6     7    1
    24     7     8    1
    25     8    12    1
    26    12    13    1
    27    13    14    1
    28    13    15    1
    29    13    16    1
    30     8     9    1
    31    10     9    1
    32    10    11    1
    33    22    23   ar
    34    23    19   ar
    35    30    25   ar
    36    11     4    1
    37    10     6    1
    38    16    17    1
@<TRIPOS>MOLECULE
*****
 35 38 0 0 0
SMALL
GASTEIGER

@<TRIPOS>ATOM
      1 C         140.6488  138.4833  161.9659 C.2     1  UNL1        0.2685
      2 O         140.8649  137.2207  162.7464 O.2     1  UNL1       -0.2682
      3 N         140.4743  139.7885  162.6842 N.am    1  UNL1       -0.2723
      4 C         140.5159  139.8312  164.1830 C.3     1  UNL1        0.0761
      5 C         139.3276  139.8768  165.0971 C.3     1  UNL1        0.0213
      6 C         139.8305  139.9095  166.5099 C.3     1  UNL1        0.0190
      7 C         139.4069  139.9580  167.9480 C.3     1  UNL1        0.0722
      8 N         140.6443  139.9626  168.7959 N.3     1  UNL1       -0.2707
      9 C         141.8328  139.9170  167.8817 C.3     1  UNL1        0.0722
     10 C         141.3298  139.8842  166.4689 C.3     1  UNL1        0.0190
     11 C         141.7534  139.8358  165.0308 C.3     1  UNL1        0.0213
     12 C         140.6860  140.0053  170.2946 C.3     1  UNL1        0.0993
     13 C         141.4171  141.1131  170.9934 C.3     1  UNL1        0.1031
     14 C         140.2201  142.0030  170.8347 C.3     1  UNL1        0.0307
     15 C         142.6141  140.2233  171.1521 C.3     1  UNL1        0.0307
     16 O         142.1482  142.2210  171.6921 O.3     1  UNL1       -0.3854
     17 H         141.5759  143.0024  171.7460 H       1  UNL1        0.2103
     18 C         142.1398  138.3115  156.9035 C.3     1  UNL1        0.1321
     19 N         141.2923  138.3617  158.1402 N.ar    1  UNL1       -0.3057
     20 C         139.7932  138.3885  158.1811 C.ar    1  UNL1        0.1787
     21 N         139.3696  138.4373  159.6193 N.ar    1  UNL1       -0.2192
     22 C         140.6071  138.4407  160.4671 C.ar    1  UNL1        0.1535
     23 C         141.7953  138.3940  159.5530 C.ar    1  UNL1        0.1012
     24 C         140.2581  141.0510  161.9037 C.3     1  UNL1        0.1205
     25 C         140.9747  142.3084  162.2978 C.ar    1  UNL1        0.0007
     26 C         140.1959  143.5599  162.5755 C.ar    1  UNL1       -0.0024
     27 C         140.9126  144.8173  162.9697 C.ar    1  UNL1        0.0028
     28 C         142.4080  144.8233  163.0860 C.ar    1  UNL1        0.0372
     29 C         143.1869  143.5718  162.8083 C.ar    1  UNL1        0.1465
     30 C         142.4703  142.3144  162.4142 C.ar    1  UNL1        0.0346
     31 O         144.6824  143.5777  162.9247 O.3     1  UNL1       -0.4045
     32 C         145.3908  142.4106  163.5460 C.3     1  UNL1        0.5753
     33 F         146.0994  141.2435  164.1673 F       1  UNL1       -0.1328
     34 F         145.0858  142.9522  164.9111 F       1  UNL1       -0.1328
     35 F         145.6959  141.8691  162.1808 F       1  UNL1       -0.1328
@<TRIPOS>BOND
     1    18    19    1
     2    19    20   ar
     3    20    21   ar
     4    21    22   ar
     5    22     1    1
     6     1     2    2
     7     1     3   am
     8     3    24    1
     9    24    25    1
    10    25    26   ar
    11    26    27   ar
    12    27    28   ar
    13    28    29   ar
    14    29    31    1
    15    31    32    1
    16    32    33    1
    17    32    34    1
    18    32    35    1
    19    29    30   ar
    20     4     3    1
    21     4     5    1
    22     6     5    1
    23     6     7    1
    24     7     8    1
    25     8    12    1
    26    12    13    1
    27    13    14    1
    28    13    15    1
    29    13    16    1
    30     8     9    1
    31    10     9    1
    32    10    11    1
    33    22    23   ar
    34    23    19   ar
    35    30    25   ar
    36    11     4    1
    37    10     6    1
    38    16    17    1
@<TRIPOS>MOLECULE
*****
 35 38 0 0 0
SMALL
GASTEIGER

@<TRIPOS>ATOM
      1 C         140.7357  138.4839  161.7035 C.2     1  UNL1        0.2685
      2 O         141.1406  137.2873  162.5122 O.2     1  UNL1       -0.2682
      3 N         140.3365  139.7549  162.3927 N.am    1  UNL1       -0.2723
      4 C         140.3421  139.8294  163.8909 C.3     1  UNL1        0.0761
      5 C         141.5312  140.1306  164.7542 C.3     1  UNL1        0.0213
      6 C         141.0836  140.1031  166.1856 C.3     1  UNL1        0.0190
      7 C         141.5418  140.2722  167.6038 C.3     1  UNL1        0.0722
      8 N         140.3594  140.0585  168.5017 N.3     1  UNL1       -0.2707
      9 C         139.1703  139.7572  167.6383 C.3     1  UNL1        0.0722
     10 C         139.6179  139.7848  166.2069 C.3     1  UNL1        0.0190
     11 C         139.1596  139.6157  164.7887 C.3     1  UNL1        0.0213
     12 C         140.3650  140.1329  169.9998 C.3     1  UNL1        0.0993
     13 C         140.9473  141.3312  170.6890 C.3     1  UNL1        0.1031
     14 C         142.1683  140.5347  171.0421 C.3     1  UNL1        0.0307
     15 C         139.7263  142.1277  170.3360 C.3     1  UNL1        0.0307
     16 O         141.5296  142.5295  171.3783 O.3     1  UNL1       -0.3854
     17 H         142.3996  142.3022  171.7421 H       1  UNL1        0.2103
     18 C         142.3482  138.2412  156.6813 C.3     1  UNL1        0.1321
     19 N         141.4711  138.2980  157.8969 N.ar    1  UNL1       -0.3057
     20 C         139.9712  138.2923  157.9028 C.ar    1  UNL1        0.1787
     21 N         139.5132  138.3612  159.3296 N.ar    1  UNL1       -0.2192
     22 C         140.7300  138.4096  160.2053 C.ar    1  UNL1        0.1535
     23 C         141.9401  138.3705  159.3199 C.ar    1  UNL1        0.1012
     24 C         139.9317  140.9515  161.5839 C.3     1  UNL1        0.1205
     25 C         139.7326  142.2781  162.2551 C.ar    1  UNL1        0.0007
     26 C         138.3455  142.7857  162.5164 C.ar    1  UNL1       -0.0024
     27 C         138.1463  144.1123  163.1877 C.ar    1  UNL1        0.0028
     28 C         139.3343  144.9312  163.5977 C.ar    1  UNL1        0.0372
     29 C         140.7214  144.4236  163.3364 C.ar    1  UNL1        0.1465
     30 C         140.9205  143.0971  162.6652 C.ar    1  UNL1        0.0346
     31 O         141.9094  145.2425  163.7464 O.3     1  UNL1       -0.4045
     32 C         143.2090  144.5679  164.0718 C.3     1  UNL1        0.5753
     33 F         144.5087  143.8933  164.3972 F       1  UNL1       -0.1328
     34 F         143.9047  145.4138  163.0468 F       1  UNL1       -0.1328
     35 F         142.5134  143.7221  165.0968 F       1  UNL1       -0.1328
@<TRIPOS>BOND
     1    18    19    1
     2    19    20   ar
     3    20    21   ar
     4    21    22   ar
     5    22     1    1
     6     1     2    2
     7     1     3   am
     8     3    24    1
     9    24    25    1
    10    25    26   ar
    11    26    27   ar
    12    27    28   ar
    13    28    29   ar
    14    29    31    1
    15    31    32    1
    16    32    33    1
    17    32    34    1
    18    32    35    1
    19    29    30   ar
    20     4     3    1
    21     4     5    1
    22     6     5    1
    23     6     7    1
    24     7     8    1
    25     8    12    1
    26    12    13    1
    27    13    14    1
    28    13    15    1
    29    13    16    1
    30     8     9    1
    31    10     9    1
    32    10    11    1
    33    22    23   ar
    34    23    19   ar
    35    30    25   ar
    36    11     4    1
    37    10     6    1
    38    16    17    1
@<TRIPOS>MOLECULE
*****
 35 38 0 0 0
SMALL
GASTEIGER

@<TRIPOS>ATOM
      1 C         143.0800  143.2098  161.6292 C.2     1  UNL1        0.2685
      2 O         143.3888  144.4794  162.3658 O.2     1  UNL1       -0.2682
      3 N         142.4136  142.0714  162.3433 N.am    1  UNL1       -0.2723
      4 C         142.0560  142.2026  163.7942 C.3     1  UNL1        0.0761
      5 C         140.8052  142.8241  164.3412 C.3     1  UNL1        0.0213
      6 C         140.8626  142.7409  165.8378 C.3     1  UNL1        0.0190
      7 C         140.1251  143.0736  167.1009 C.3     1  UNL1        0.0722
      8 N         140.9555  142.6063  168.2594 N.3     1  UNL1       -0.2707
      9 C         142.2063  141.9848  167.7123 C.3     1  UNL1        0.0722
     10 C         142.1489  142.0680  166.2157 C.3     1  UNL1        0.0190
     11 C         142.8864  141.7353  164.9526 C.3     1  UNL1        0.0213
     12 C         140.5979  142.7375  169.7102 C.3     1  UNL1        0.0993
     13 C         140.5679  141.5217  170.5881 C.3     1  UNL1        0.1031
     14 C         141.8279  141.9774  171.2623 C.3     1  UNL1        0.0307
     15 C         139.3078  141.0659  169.9140 C.3     1  UNL1        0.0307
     16 O         140.5378  140.3058  171.4662 O.3     1  UNL1       -0.3854
     17 H         141.2996  140.3216  172.0665 H       1  UNL1        0.2103
     18 C         142.8852  143.5158  156.3614 C.3     1  UNL1        0.1321
     19 N         143.3481  143.2191  157.7571 N.ar    1  UNL1       -0.3057
     20 C         144.6278  142.5336  158.1345 C.ar    1  UNL1        0.1787
     21 N         144.6831  142.4467  159.6310 N.ar    1  UNL1       -0.2192
     22 C         143.4375  143.0785  160.1783 C.ar    1  UNL1        0.1535
     23 C         142.6125  143.5558  159.0202 C.ar    1  UNL1        0.1012
     24 C         142.1048  140.8018  161.6066 C.3     1  UNL1        0.1205
     25 C         140.8441  140.0472  161.9085 C.ar    1  UNL1        0.0007
     26 C         139.7189  140.0394  160.9165 C.ar    1  UNL1       -0.0024
     27 C         138.4582  139.2848  161.2184 C.ar    1  UNL1        0.0028
     28 C         138.3225  138.5379  162.5121 C.ar    1  UNL1        0.0372
     29 C         139.4477  138.5457  163.5041 C.ar    1  UNL1        0.1465
     30 C         140.7084  139.3003  163.2023 C.ar    1  UNL1        0.0346
     31 O         139.3122  137.7989  164.7979 O.3     1  UNL1       -0.4045
     32 C         138.3770  138.2995  165.8584 C.3     1  UNL1        0.5753
     33 F         137.4417  138.8003  166.9190 F       1  UNL1       -0.1328
     34 F         137.9598  136.8898  166.1561 F       1  UNL1       -0.1328
     35 F         138.7941  139.7093  165.5608 F       1  UNL1       -0.1328
@<TRIPOS>BOND
     1    18    19    1
     2    19    20   ar
     3    20    21   ar
     4    21    22   ar
     5    22     1    1
     6     1     2    2
     7     1     3   am
     8     3    24    1
     9    24    25    1
    10    25    26   ar
    11    26    27   ar
    12    27    28   ar
    13    28    29   ar
    14    29    31    1
    15    31    32    1
    16    32    33    1
    17    32    34    1
    18    32    35    1
    19    29    30   ar
    20     4     3    1
    21     4     5    1
    22     6     5    1
    23     6     7    1
    24     7     8    1
    25     8    12    1
    26    12    13    1
    27    13    14    1
    28    13    15    1
    29    13    16    1
    30     8     9    1
    31    10     9    1
    32    10    11    1
    33    22    23   ar
    34    23    19   ar
    35    30    25   ar
    36    11     4    1
    37    10     6    1
    38    16    17    1
@<TRIPOS>MOLECULE
*****
 35 38 0 0 0
SMALL
GASTEIGER

@<TRIPOS>ATOM
      1 C         143.1848  140.1029  165.2726 C.2     1  UNL1        0.2685
      2 O         144.5387  139.6563  164.8063 O.2     1  UNL1       -0.2682
      3 N         142.0201  140.0780  164.3278 N.am    1  UNL1       -0.2723
      4 C         142.2092  139.6063  162.9165 C.3     1  UNL1        0.0761
      5 C         142.1111  140.4541  161.6829 C.3     1  UNL1        0.0213
      6 C         142.3709  139.5757  160.4950 C.3     1  UNL1        0.0190
      7 C         142.4709  139.5568  158.9985 C.3     1  UNL1        0.0722
      8 N         142.7913  138.1546  158.5729 N.3     1  UNL1       -0.2707
      9 C         142.8893  137.3068  159.8066 C.3     1  UNL1        0.0722
     10 C         142.6295  138.1852  160.9944 C.3     1  UNL1        0.0190
     11 C         142.5296  138.2040  162.4910 C.3     1  UNL1        0.0213
     12 C         142.9804  137.6829  157.1617 C.3     1  UNL1        0.0993
     13 C         142.1463  136.5554  156.6296 C.3     1  UNL1        0.1031
     14 C         143.3691  135.6909  156.5447 C.3     1  UNL1        0.0307
     15 C         140.9234  137.4199  156.7145 C.3     1  UNL1        0.0307
     16 O         141.3122  135.4279  156.0975 O.3     1  UNL1       -0.3854
     17 H         141.8780  134.6578  155.9310 H       1  UNL1        0.2103
     18 C         142.2745  140.1464  170.4737 C.3     1  UNL1        0.1321
     19 N         142.5772  140.5947  169.0745 N.ar    1  UNL1       -0.3057
     20 C         142.8317  142.0066  168.6368 C.ar    1  UNL1        0.1787
     21 N         143.0903  141.9942  167.1592 N.ar    1  UNL1       -0.2192
     22 C         142.9956  140.5746  166.6840 C.ar    1  UNL1        0.1535
     23 C         142.6785  139.7097  167.8676 C.ar    1  UNL1        0.1012
     24 C         140.6663  140.5247  164.7942 C.3     1  UNL1        0.1205
     25 C         140.2603  141.9616  164.6514 C.ar    1  UNL1        0.0007
     26 C         138.8226  142.3551  164.8200 C.ar    1  UNL1       -0.0024
     27 C         138.4166  143.7920  164.6773 C.ar    1  UNL1        0.0028
     28 C         139.4481  144.8355  164.3658 C.ar    1  UNL1        0.0372
     29 C         140.8858  144.4421  164.1972 C.ar    1  UNL1        0.1465
     30 C         141.2918  143.0052  164.3400 C.ar    1  UNL1        0.0346
     31 O         141.9174  145.4855  163.8858 O.3     1  UNL1       -0.4045
     32 C         143.2161  145.0894  163.2482 C.3     1  UNL1        0.5753
     33 F         144.5149  144.6933  162.6107 F       1  UNL1       -0.1328
     34 F         142.4983  144.8059  161.9621 F       1  UNL1       -0.1328
     35 F         143.9340  145.3729  164.5344 F       1  UNL1       -0.1328
@<TRIPOS>BOND
     1    18    19    1
     2    19    20   ar
     3    20    21   ar
     4    21    22   ar
     5    22     1    1
     6     1     2    2
     7     1     3   am
     8     3    24    1
     9    24    25    1
    10    25    26   ar
    11    26    27   ar
    12    27    28   ar
    13    28    29   ar
    14    29    31    1
    15    31    32    1
    16    32    33    1
    17    32    34    1
    18    32    35    1
    19    29    30   ar
    20     4     3    1
    21     4     5    1
    22     6     5    1
    23     6     7    1
    24     7     8    1
    25     8    12    1
    26    12    13    1
    27    13    14    1
    28    13    15    1
    29    13    16    1
    30     8     9    1
    31    10     9    1
    32    10    11    1
    33    22    23   ar
    34    23    19   ar
    35    30    25   ar
    36    11     4    1
    37    10     6    1
    38    16    17    1
