@<TRIPOS>MOLECULE
*****
 31 34 0 0 0
SMALL
GASTEIGER

@<TRIPOS>ATOM
      1 C         142.1387  142.5399  163.5297 C.ar    1  UNL1        0.1122
      2 N         142.1233  142.7686  162.0474 N.ar    1  UNL1       -0.2259
      3 C         141.9807  144.2425  161.8072 C.ar    1  UNL1        0.1412
      4 C         141.9080  144.9246  163.1412 C.ar    1  UNL1        0.0710
      5 S         142.0057  143.8723  164.2058 S.2     1  UNL1       -0.0670
      6 C         138.6144  139.1977  165.9087 C.3     1  UNL1        0.0320
      7 C         139.8313  139.8691  165.3443 C.3     1  UNL1        0.1155
      8 C         141.1745  139.2126  165.4659 C.3     1  UNL1        0.0328
      9 C         142.3913  139.8840  164.9016 C.3     1  UNL1        0.0426
     10 C         143.7345  139.2273  165.0232 C.3     1  UNL1        0.0673
     11 S         144.9514  139.8987  164.4589 S.3     1  UNL1       -0.0807
     12 C         144.8250  141.2268  163.7729 C.2     1  UNL1        0.1483
     13 N         146.0419  141.8982  163.2086 N.pl3   1  UNL1       -0.3380
     14 N         143.4819  141.8833  163.6513 N.2     1  UNL1       -0.2464
     15 C         142.2650  141.2119  164.2157 C.3     1  UNL1        0.1549
     16 C         140.9219  141.8684  164.0941 C.3     1  UNL1        0.1705
     17 O         139.7050  141.1970  164.6584 O.3     1  UNL1       -0.3538
     18 H         146.9235  141.4672  163.2884 H       1  UNL1        0.1442
     19 H         145.9590  142.7698  162.7584 H       1  UNL1        0.1442
     20 N         141.9212  144.9159  160.4682 N.am    1  UNL1       -0.2641
     21 C         140.6660  144.8485  159.6499 C.2     1  UNL1        0.2701
     22 O         139.4701  144.1077  160.1707 O.2     1  UNL1       -0.2681
     23 H         142.7061  145.4021  160.1264 H       1  UNL1        0.1566
     24 C         140.6065  145.5219  158.3109 C.ar    1  UNL1        0.1560
     25 C         141.5410  145.2838  157.1620 C.ar    1  UNL1        0.0459
     26 C         141.1141  146.1664  156.0268 C.ar    1  UNL1        0.1023
     27 N         139.9158  146.9501  156.4741 N.ar    1  UNL1       -0.1912
     28 N         139.6020  146.5518  157.8858 N.ar    1  UNL1       -0.1602
     29 C         139.1634  147.9555  155.6538 C.3     1  UNL1        0.4298
     30 F         139.0911  147.8041  154.1632 F       1  UNL1       -0.1711
     31 F         138.4832  149.1123  156.3240 F       1  UNL1       -0.1711
@<TRIPOS>BOND
     1     7     6    1
     2     7     8    1
     3     9     8    1
     4     9    10    1
     5    10    11    1
     6    11    12    1
     7    12    13    1
     8    12    14    2
     9    14    15    1
    10    15     1    1
    11     1     2   ar
    12     2     3   ar
    13     3    20    1
    14    20    21   am
    15    21    22    2
    16    21    24    1
    17    24    25   ar
    18    25    26   ar
    19    26    27   ar
    20    27    29    1
    21    29    30    1
    22    29    31    1
    23    27    28   ar
    24     3     4   ar
    25     4     5   ar
    26    15    16    1
    27    16    17    1
    28    17     7    1
    29    15     9    1
    30     5     1   ar
    31    28    24   ar
    32    13    18    1
    33    13    19    1
    34    20    23    1
@<TRIPOS>MOLECULE
*****
 31 34 0 0 0
SMALL
GASTEIGER

@<TRIPOS>ATOM
      1 C         142.3249  143.6204  163.4092 C.ar    1  UNL1        0.1122
      2 N         142.6380  142.6998  162.2671 N.ar    1  UNL1       -0.2259
      3 C         143.9545  143.1178  161.6822 C.ar    1  UNL1        0.1412
      4 C         144.4551  144.2968  162.4628 C.ar    1  UNL1        0.0710
      5 S         143.4480  144.6075  163.5301 S.2     1  UNL1       -0.0670
      6 C         141.3840  141.9008  168.4498 C.3     1  UNL1        0.0320
      7 C         141.2904  142.4552  167.0592 C.3     1  UNL1        0.1155
      8 C         139.9754  142.9532  166.5372 C.3     1  UNL1        0.0328
      9 C         139.8818  143.5076  165.1465 C.3     1  UNL1        0.0426
     10 C         138.5667  144.0056  164.6246 C.3     1  UNL1        0.0673
     11 S         138.4731  144.5601  163.2339 S.3     1  UNL1       -0.0807
     12 C         139.6948  144.6164  162.3653 C.2     1  UNL1        0.1483
     13 N         139.6013  145.1709  160.9746 N.pl3   1  UNL1       -0.3380
     14 N         141.0099  144.1184  162.8873 N.2     1  UNL1       -0.2464
     15 C         141.1034  143.5640  164.2779 C.3     1  UNL1        0.1549
     16 C         142.4185  143.0660  164.7999 C.3     1  UNL1        0.1705
     17 O         142.5120  142.5116  166.1905 O.3     1  UNL1       -0.3538
     18 H         138.7381  145.4977  160.6320 H       1  UNL1        0.1442
     19 H         140.4030  145.2079  160.4045 H       1  UNL1        0.1442
     20 N         144.6485  142.4704  160.5206 N.am    1  UNL1       -0.2641
     21 C         144.2501  142.8222  159.1180 C.2     1  UNL1        0.2701
     22 O         143.1575  143.8213  158.8769 O.2     1  UNL1       -0.2681
     23 H         145.3656  141.8147  160.6788 H       1  UNL1        0.1566
     24 C         144.9441  142.1748  157.9565 C.ar    1  UNL1        0.1560
     25 C         144.4169  141.0327  157.1395 C.ar    1  UNL1        0.0459
     26 C         145.4341  140.7080  156.0860 C.ar    1  UNL1        0.1023
     27 N         146.5901  141.6494  156.2520 N.ar    1  UNL1       -0.1912
     28 N         146.2872  142.5560  157.4080 N.ar    1  UNL1       -0.1602
     29 C         147.8310  141.6791  155.4098 C.3     1  UNL1        0.4298
     30 F         147.7488  141.3792  153.9424 F       1  UNL1       -0.1711
     31 F         149.1541  142.0086  156.0350 F       1  UNL1       -0.1711
@<TRIPOS>BOND
     1     7     6    1
     2     7     8    1
     3     9     8    1
     4     9    10    1
     5    10    11    1
     6    11    12    1
     7    12    13    1
     8    12    14    2
     9    14    15    1
    10    15     1    1
    11     1     2   ar
    12     2     3   ar
    13     3    20    1
    14    20    21   am
    15    21    22    2
    16    21    24    1
    17    24    25   ar
    18    25    26   ar
    19    26    27   ar
    20    27    29    1
    21    29    30    1
    22    29    31    1
    23    27    28   ar
    24     3     4   ar
    25     4     5   ar
    26    15    16    1
    27    16    17    1
    28    17     7    1
    29    15     9    1
    30     5     1   ar
    31    28    24   ar
    32    13    18    1
    33    13    19    1
    34    20    23    1
@<TRIPOS>MOLECULE
*****
 31 34 0 0 0
SMALL
GASTEIGER

@<TRIPOS>ATOM
      1 C         139.9483  142.9369  163.9829 C.ar    1  UNL1        0.1122
      2 N         140.3097  142.9852  162.5279 N.ar    1  UNL1       -0.2259
      3 C         139.5462  144.1122  161.8977 C.ar    1  UNL1        0.1412
      4 C         138.7129  144.7604  162.9633 C.ar    1  UNL1        0.0710
      5 S         138.9614  144.0341  164.2520 S.2     1  UNL1       -0.0670
      6 C         137.8008  138.7475  166.6451 C.3     1  UNL1        0.0320
      7 C         138.6939  139.8192  166.0940 C.3     1  UNL1        0.1155
      8 C         140.1191  139.9166  166.5516 C.3     1  UNL1        0.0328
      9 C         141.0122  140.9883  166.0005 C.3     1  UNL1        0.0426
     10 C         142.4374  141.0856  166.4581 C.3     1  UNL1        0.0673
     11 S         143.3306  142.1573  165.9070 S.3     1  UNL1       -0.0807
     12 C         142.7985  143.1317  164.8982 C.2     1  UNL1        0.1483
     13 N         143.6917  144.2034  164.3470 N.pl3   1  UNL1       -0.3380
     14 N         141.3734  143.0343  164.4405 N.2     1  UNL1       -0.2464
     15 C         140.4802  141.9626  164.9917 C.3     1  UNL1        0.1549
     16 C         139.0551  141.8652  164.5341 C.3     1  UNL1        0.1705
     17 O         138.1620  140.7935  165.0852 O.3     1  UNL1       -0.3538
     18 H         144.6271  144.2673  164.6474 H       1  UNL1        0.1442
     19 H         143.3425  144.8428  163.6849 H       1  UNL1        0.1442
     20 N         139.6057  144.5195  160.4553 N.am    1  UNL1       -0.2641
     21 C         140.9252  144.8490  159.8228 C.2     1  UNL1        0.2701
     22 O         142.1854  144.7713  160.6328 O.2     1  UNL1       -0.2681
     23 H         138.7786  144.5705  159.9237 H       1  UNL1        0.1566
     24 C         140.9846  145.2563  158.3804 C.ar    1  UNL1        0.1560
     25 C         142.0618  144.8877  157.4039 C.ar    1  UNL1        0.0459
     26 C         141.7202  145.5072  156.0812 C.ar    1  UNL1        0.1023
     27 N         140.4317  146.2587  156.2403 N.ar    1  UNL1       -0.1912
     28 N         139.9771  146.1036  157.6613 N.ar    1  UNL1       -0.1602
     29 C         139.7225  147.0299  155.1668 C.3     1  UNL1        0.4298
     30 F         138.2248  147.0040  155.0898 F       1  UNL1       -0.1711
     31 F         140.5111  147.8270  154.1704 F       1  UNL1       -0.1711
@<TRIPOS>BOND
     1     7     6    1
     2     7     8    1
     3     9     8    1
     4     9    10    1
     5    10    11    1
     6    11    12    1
     7    12    13    1
     8    12    14    2
     9    14    15    1
    10    15     1    1
    11     1     2   ar
    12     2     3   ar
    13     3    20    1
    14    20    21   am
    15    21    22    2
    16    21    24    1
    17    24    25   ar
    18    25    26   ar
    19    26    27   ar
    20    27    29    1
    21    29    30    1
    22    29    31    1
    23    27    28   ar
    24     3     4   ar
    25     4     5   ar
    26    15    16    1
    27    16    17    1
    28    17     7    1
    29    15     9    1
    30     5     1   ar
    31    28    24   ar
    32    13    18    1
    33    13    19    1
    34    20    23    1
@<TRIPOS>MOLECULE
*****
 31 34 0 0 0
SMALL
GASTEIGER

@<TRIPOS>ATOM
      1 C         138.9320  142.1014  163.8192 C.ar    1  UNL1        0.1122
      2 N         139.6599  142.2109  162.5122 N.ar    1  UNL1       -0.2259
      3 C         138.9892  143.2758  161.6959 C.ar    1  UNL1        0.1412
      4 C         137.8467  143.8243  162.4984 C.ar    1  UNL1        0.0710
      5 S         137.8114  143.0985  163.8106 S.2     1  UNL1       -0.0670
      6 C         140.8920  142.7619  168.8164 C.3     1  UNL1        0.0320
      7 C         140.3500  142.2279  167.5237 C.3     1  UNL1        0.1155
      8 C         140.1420  140.7526  167.3500 C.3     1  UNL1        0.0328
      9 C         139.6000  140.2187  166.0573 C.3     1  UNL1        0.0426
     10 C         139.3921  138.7433  165.8836 C.3     1  UNL1        0.0673
     11 S         138.8501  138.2093  164.5909 S.3     1  UNL1       -0.0807
     12 C         138.5160  139.1508  163.4718 C.2     1  UNL1        0.1483
     13 N         137.9740  138.6168  162.1791 N.pl3   1  UNL1       -0.3380
     14 N         138.7240  140.6261  163.6455 N.2     1  UNL1       -0.2464
     15 C         139.2660  141.1600  164.9382 C.3     1  UNL1        0.1549
     16 C         139.4740  142.6353  165.1119 C.3     1  UNL1        0.1705
     17 O         140.0160  143.1693  166.4047 O.3     1  UNL1       -0.3538
     18 H         137.8375  137.6485  162.0651 H       1  UNL1        0.1442
     19 H         137.7548  139.2347  161.4446 H       1  UNL1        0.1442
     20 N         139.3904  143.7149  160.3189 N.am    1  UNL1       -0.2641
     21 C         140.0908  145.0269  160.1244 C.2     1  UNL1        0.2701
     22 O         140.3901  145.8998  161.3071 O.2     1  UNL1       -0.2681
     23 H         139.1940  143.1420  159.5427 H       1  UNL1        0.1566
     24 C         140.4921  145.4660  158.7475 C.ar    1  UNL1        0.1560
     25 C         141.8500  145.3042  158.1312 C.ar    1  UNL1        0.0459
     26 C         141.8030  145.8823  156.7478 C.ar    1  UNL1        0.1023
     27 N         140.4160  146.4014  156.5091 N.ar    1  UNL1       -0.1912
     28 N         139.6058  146.1441  157.7450 N.ar    1  UNL1       -0.1602
     29 C         139.9254  147.0617  155.2549 C.3     1  UNL1        0.4298
     30 F         140.8908  147.3969  154.1569 F       1  UNL1       -0.1711
     31 F         138.4694  147.3869  155.0986 F       1  UNL1       -0.1711
@<TRIPOS>BOND
     1     7     6    1
     2     7     8    1
     3     9     8    1
     4     9    10    1
     5    10    11    1
     6    11    12    1
     7    12    13    1
     8    12    14    2
     9    14    15    1
    10    15     1    1
    11     1     2   ar
    12     2     3   ar
    13     3    20    1
    14    20    21   am
    15    21    22    2
    16    21    24    1
    17    24    25   ar
    18    25    26   ar
    19    26    27   ar
    20    27    29    1
    21    29    30    1
    22    29    31    1
    23    27    28   ar
    24     3     4   ar
    25     4     5   ar
    26    15    16    1
    27    16    17    1
    28    17     7    1
    29    15     9    1
    30     5     1   ar
    31    28    24   ar
    32    13    18    1
    33    13    19    1
    34    20    23    1
@<TRIPOS>MOLECULE
*****
 31 34 0 0 0
SMALL
GASTEIGER

@<TRIPOS>ATOM
      1 C         141.6656  142.1386  163.2214 C.ar    1  UNL1        0.1122
      2 N         141.9384  141.8504  161.7748 N.ar    1  UNL1       -0.2259
      3 C         143.4219  141.9129  161.5613 C.ar    1  UNL1        0.1412
      4 C         144.0659  142.2397  162.8761 C.ar    1  UNL1        0.0710
      5 S         142.9806  142.3792  163.9020 S.2     1  UNL1       -0.0670
      6 C         138.5173  138.4147  165.5604 C.3     1  UNL1        0.0320
      7 C         139.1166  139.6695  164.9979 C.3     1  UNL1        0.1155
      8 C         138.3654  140.9648  165.0870 C.3     1  UNL1        0.0328
      9 C         138.9647  142.2195  164.5244 C.3     1  UNL1        0.0426
     10 C         138.2134  143.5149  164.6135 C.3     1  UNL1        0.0673
     11 S         138.8127  144.7696  164.0510 S.3     1  UNL1       -0.0807
     12 C         140.1633  144.7291  163.3994 C.2     1  UNL1        0.1483
     13 N         140.7625  145.9839  162.8369 N.pl3   1  UNL1       -0.3380
     14 N         140.9144  143.4338  163.3104 N.2     1  UNL1       -0.2464
     15 C         140.3152  142.1791  163.8729 C.3     1  UNL1        0.1549
     16 C         141.0663  140.8838  163.7839 C.3     1  UNL1        0.1705
     17 O         140.4671  139.6290  164.3464 O.3     1  UNL1       -0.3538
     18 H         140.2695  146.8340  162.8954 H       1  UNL1        0.1442
     19 H         141.6489  145.9573  162.4093 H       1  UNL1        0.1442
     20 N         144.1359  141.6880  160.2615 N.am    1  UNL1       -0.2641
     21 C         143.9911  142.6792  159.1451 C.2     1  UNL1        0.2701
     22 O         143.1322  143.8953  159.3285 O.2     1  UNL1       -0.2681
     23 H         144.6996  140.8899  160.1411 H       1  UNL1        0.1566
     24 C         144.7051  142.4544  157.8452 C.ar    1  UNL1        0.1560
     25 C         144.0578  142.1977  156.5167 C.ar    1  UNL1        0.0459
     26 C         145.1444  142.0314  155.4961 C.ar    1  UNL1        0.1023
     27 N         146.4633  142.1853  156.1939 N.ar    1  UNL1       -0.1912
     28 N         146.1918  142.4467  157.6458 N.ar    1  UNL1       -0.1602
     29 C         147.8161  142.0939  155.5524 C.3     1  UNL1        0.4298
     30 F         147.9348  142.0259  154.0587 F       1  UNL1       -0.1711
     31 F         149.0503  142.0705  156.4047 F       1  UNL1       -0.1711
@<TRIPOS>BOND
     1     7     6    1
     2     7     8    1
     3     9     8    1
     4     9    10    1
     5    10    11    1
     6    11    12    1
     7    12    13    1
     8    12    14    2
     9    14    15    1
    10    15     1    1
    11     1     2   ar
    12     2     3   ar
    13     3    20    1
    14    20    21   am
    15    21    22    2
    16    21    24    1
    17    24    25   ar
    18    25    26   ar
    19    26    27   ar
    20    27    29    1
    21    29    30    1
    22    29    31    1
    23    27    28   ar
    24     3     4   ar
    25     4     5   ar
    26    15    16    1
    27    16    17    1
    28    17     7    1
    29    15     9    1
    30     5     1   ar
    31    28    24   ar
    32    13    18    1
    33    13    19    1
    34    20    23    1
@<TRIPOS>MOLECULE
*****
 31 34 0 0 0
SMALL
GASTEIGER

@<TRIPOS>ATOM
      1 C         139.5407  139.1953  161.2529 C.ar    1  UNL1        0.1122
      2 N         139.7927  140.2181  162.3209 N.ar    1  UNL1       -0.2259
      3 C         139.1750  139.7205  163.5942 C.ar    1  UNL1        0.1412
      4 C         138.5414  138.3903  163.3131 C.ar    1  UNL1        0.0710
      5 S         138.7673  138.0657  161.8662 S.2     1  UNL1       -0.0670
      6 C         137.3097  141.2068  156.7556 C.3     1  UNL1        0.0320
      7 C         138.2011  140.5666  157.7780 C.3     1  UNL1        0.1155
      8 C         139.5361  140.0173  157.3704 C.3     1  UNL1        0.0328
      9 C         140.4275  139.3771  158.3929 C.3     1  UNL1        0.0426
     10 C         141.7625  138.8278  157.9852 C.3     1  UNL1        0.0673
     11 S         142.6540  138.1876  159.0077 S.3     1  UNL1       -0.0807
     12 C         142.2105  138.0967  160.4378 C.2     1  UNL1        0.1483
     13 N         143.1020  137.4565  161.4602 N.pl3   1  UNL1       -0.3380
     14 N         140.8756  138.6460  160.8454 N.2     1  UNL1       -0.2464
     15 C         139.9841  139.2862  159.8229 C.3     1  UNL1        0.1549
     16 C         138.6492  139.8355  160.2305 C.3     1  UNL1        0.1705
     17 O         137.7577  140.4757  159.2080 O.3     1  UNL1       -0.3538
     18 H         143.9782  137.0960  161.1927 H       1  UNL1        0.1442
     19 H         142.8109  137.3968  162.3988 H       1  UNL1        0.1442
     20 N         139.1887  140.4289  164.9163 N.am    1  UNL1       -0.2641
     21 C         140.1158  139.9710  166.0029 C.2     1  UNL1        0.2701
     22 O         141.0292  138.8046  165.7674 O.2     1  UNL1       -0.2681
     23 H         138.5892  141.1943  165.0709 H       1  UNL1        0.1566
     24 C         140.1295  140.6793  167.3251 C.ar    1  UNL1        0.1560
     25 C         139.4809  140.1989  168.5894 C.ar    1  UNL1        0.0459
     26 C         139.7447  141.2151  169.6607 C.ar    1  UNL1        0.1023
     27 N         140.5565  142.3235  169.0585 N.ar    1  UNL1       -0.1912
     28 N         140.7943  141.9924  167.6149 N.ar    1  UNL1       -0.1602
     29 C         141.0447  143.5480  169.7742 C.3     1  UNL1        0.4298
     30 F         140.1708  144.7640  169.8617 F       1  UNL1       -0.1711
     31 F         142.4068  143.5566  170.4024 F       1  UNL1       -0.1711
@<TRIPOS>BOND
     1     7     6    1
     2     7     8    1
     3     9     8    1
     4     9    10    1
     5    10    11    1
     6    11    12    1
     7    12    13    1
     8    12    14    2
     9    14    15    1
    10    15     1    1
    11     1     2   ar
    12     2     3   ar
    13     3    20    1
    14    20    21   am
    15    21    22    2
    16    21    24    1
    17    24    25   ar
    18    25    26   ar
    19    26    27   ar
    20    27    29    1
    21    29    30    1
    22    29    31    1
    23    27    28   ar
    24     3     4   ar
    25     4     5   ar
    26    15    16    1
    27    16    17    1
    28    17     7    1
    29    15     9    1
    30     5     1   ar
    31    28    24   ar
    32    13    18    1
    33    13    19    1
    34    20    23    1
@<TRIPOS>MOLECULE
*****
 31 34 0 0 0
SMALL
GASTEIGER

@<TRIPOS>ATOM
      1 C         140.3959  143.4029  163.9745 C.ar    1  UNL1        0.1122
      2 N         140.1273  142.7823  162.6356 N.ar    1  UNL1       -0.2259
      3 C         139.1019  143.6219  161.9328 C.ar    1  UNL1        0.1412
      4 C         138.7369  144.7614  162.8375 C.ar    1  UNL1        0.0710
      5 S         139.5366  144.6260  164.0993 S.2     1  UNL1       -0.0670
      6 C         139.9040  140.1363  168.2568 C.3     1  UNL1        0.0320
      7 C         140.3878  141.0543  167.1736 C.3     1  UNL1        0.1155
      8 C         141.8311  141.4598  167.1233 C.3     1  UNL1        0.0328
      9 C         142.3148  142.3778  166.0402 C.3     1  UNL1        0.0426
     10 C         143.7582  142.7833  165.9899 C.3     1  UNL1        0.0673
     11 S         144.2420  143.7013  164.9067 S.3     1  UNL1       -0.0807
     12 C         143.2824  144.2139  163.8739 C.2     1  UNL1        0.1483
     13 N         143.7662  145.1319  162.7908 N.pl3   1  UNL1       -0.3380
     14 N         141.8392  143.8084  163.9242 N.2     1  UNL1       -0.2464
     15 C         141.3554  142.8903  165.0074 C.3     1  UNL1        0.1549
     16 C         139.9122  142.4848  165.0577 C.3     1  UNL1        0.1705
     17 O         139.4284  141.5668  166.1408 O.3     1  UNL1       -0.3538
     18 H         144.7135  145.3980  162.7577 H       1  UNL1        0.1442
     19 H         143.1365  145.4683  162.1129 H       1  UNL1        0.1442
     20 N         138.5403  143.3668  160.5656 N.am    1  UNL1       -0.2641
     21 C         139.4441  143.3827  159.3686 C.2     1  UNL1        0.2701
     22 O         140.9096  143.6537  159.5389 O.2     1  UNL1       -0.2681
     23 H         137.5785  143.1890  160.4538 H       1  UNL1        0.1566
     24 C         138.8824  143.1276  158.0013 C.ar    1  UNL1        0.1560
     25 C         139.5160  143.5222  156.7002 C.ar    1  UNL1        0.0459
     26 C         138.6137  143.0716  155.5899 C.ar    1  UNL1        0.1023
     27 N         137.4225  142.3985  156.2048 N.ar    1  UNL1       -0.1912
     28 N         137.5886  142.4331  157.6951 N.ar    1  UNL1       -0.1602
     29 C         136.2680  141.7965  155.4600 C.3     1  UNL1        0.4298
     30 F         135.6145  140.5473  155.9723 F       1  UNL1       -0.1711
     31 F         135.7671  142.4436  154.2029 F       1  UNL1       -0.1711
@<TRIPOS>BOND
     1     7     6    1
     2     7     8    1
     3     9     8    1
     4     9    10    1
     5    10    11    1
     6    11    12    1
     7    12    13    1
     8    12    14    2
     9    14    15    1
    10    15     1    1
    11     1     2   ar
    12     2     3   ar
    13     3    20    1
    14    20    21   am
    15    21    22    2
    16    21    24    1
    17    24    25   ar
    18    25    26   ar
    19    26    27   ar
    20    27    29    1
    21    29    30    1
    22    29    31    1
    23    27    28   ar
    24     3     4   ar
    25     4     5   ar
    26    15    16    1
    27    16    17    1
    28    17     7    1
    29    15     9    1
    30     5     1   ar
    31    28    24   ar
    32    13    18    1
    33    13    19    1
    34    20    23    1
@<TRIPOS>MOLECULE
*****
 31 34 0 0 0
SMALL
GASTEIGER

@<TRIPOS>ATOM
      1 C         139.4211  140.5873  163.5188 C.ar    1  UNL1        0.1122
      2 N         140.3650  140.0214  162.4997 N.ar    1  UNL1       -0.2259
      3 C         139.5997  139.0544  161.6455 C.ar    1  UNL1        0.1412
      4 C         138.1828  139.0228  162.1369 C.ar    1  UNL1        0.0710
      5 S         138.0724  139.9701  163.2946 S.2     1  UNL1       -0.0670
      6 C         142.2641  140.3740  168.1147 C.3     1  UNL1        0.0320
      7 C         141.4312  140.7805  166.9353 C.3     1  UNL1        0.1155
      8 C         140.9425  142.1934  166.8136 C.3     1  UNL1        0.0328
      9 C         140.1096  142.6000  165.6342 C.3     1  UNL1        0.0426
     10 C         139.6210  144.0130  165.5125 C.3     1  UNL1        0.0673
     11 S         138.7880  144.4196  164.3331 S.3     1  UNL1       -0.0807
     12 C         138.4438  143.4131  163.2754 C.2     1  UNL1        0.1483
     13 N         137.6109  143.8197  162.0960 N.pl3   1  UNL1       -0.3380
     14 N         138.9324  142.0002  163.3971 N.2     1  UNL1       -0.2464
     15 C         139.7653  141.5937  164.5765 C.3     1  UNL1        0.1549
     16 C         140.2540  140.1808  164.6982 C.3     1  UNL1        0.1705
     17 O         141.0869  139.7742  165.8776 O.3     1  UNL1       -0.3538
     18 H         137.2902  144.7470  162.0161 H       1  UNL1        0.1442
     19 H         137.3849  143.1592  161.4018 H       1  UNL1        0.1442
     20 N         140.1540  138.2588  160.5011 N.am    1  UNL1       -0.2641
     21 C         140.4540  138.9326  159.1950 C.2     1  UNL1        0.2701
     22 O         140.1997  140.4021  159.0334 O.2     1  UNL1       -0.2681
     23 H         140.3209  137.2944  160.6072 H       1  UNL1        0.1566
     24 C         141.0083  138.1371  158.0506 C.ar    1  UNL1        0.1560
     25 C         140.2247  137.5961  156.8916 C.ar    1  UNL1        0.0459
     26 C         141.1756  136.8675  155.9889 C.ar    1  UNL1        0.1023
     27 N         142.5470  136.9581  156.5900 N.ar    1  UNL1       -0.1912
     28 N         142.4436  137.7428  157.8642 N.ar    1  UNL1       -0.1602
     29 C         143.8014  136.3678  156.0174 C.3     1  UNL1        0.4298
     30 F         144.7638  137.2377  155.2643 F       1  UNL1       -0.1711
     31 F         144.0935  134.9077  156.1980 F       1  UNL1       -0.1711
@<TRIPOS>BOND
     1     7     6    1
     2     7     8    1
     3     9     8    1
     4     9    10    1
     5    10    11    1
     6    11    12    1
     7    12    13    1
     8    12    14    2
     9    14    15    1
    10    15     1    1
    11     1     2   ar
    12     2     3   ar
    13     3    20    1
    14    20    21   am
    15    21    22    2
    16    21    24    1
    17    24    25   ar
    18    25    26   ar
    19    26    27   ar
    20    27    29    1
    21    29    30    1
    22    29    31    1
    23    27    28   ar
    24     3     4   ar
    25     4     5   ar
    26    15    16    1
    27    16    17    1
    28    17     7    1
    29    15     9    1
    30     5     1   ar
    31    28    24   ar
    32    13    18    1
    33    13    19    1
    34    20    23    1
@<TRIPOS>MOLECULE
*****
 31 34 0 0 0
SMALL
GASTEIGER

@<TRIPOS>ATOM
      1 C         143.2701  142.5553  160.7575 C.ar    1  UNL1        0.1122
      2 N         144.5758  142.6792  160.0297 N.ar    1  UNL1       -0.2259
      3 C         144.2875  142.6821  158.5575 C.ar    1  UNL1        0.1412
      4 C         142.8035  142.5600  158.3757 C.ar    1  UNL1        0.0710
      5 S         142.1747  142.4816  159.7353 S.2     1  UNL1       -0.0670
      6 C         145.0447  139.2518  164.6547 C.3     1  UNL1        0.0320
      7 C         144.3935  140.3388  163.8518 C.3     1  UNL1        0.1155
      8 C         143.5633  141.3830  164.5376 C.3     1  UNL1        0.0328
      9 C         142.9121  142.4699  163.7348 C.3     1  UNL1        0.0426
     10 C         142.0819  143.5141  164.4207 C.3     1  UNL1        0.0673
     11 S         141.4307  144.6011  163.6178 S.3     1  UNL1       -0.0807
     12 C         141.6097  144.6437  162.1291 C.2     1  UNL1        0.1483
     13 N         140.9585  145.7306  161.3263 N.pl3   1  UNL1       -0.3380
     14 N         142.4399  143.5995  161.4433 N.2     1  UNL1       -0.2464
     15 C         143.0911  142.5126  162.2462 C.3     1  UNL1        0.1549
     16 C         143.9213  141.4684  161.5604 C.3     1  UNL1        0.1705
     17 O         144.5725  140.3815  162.3632 O.3     1  UNL1       -0.3538
     18 H         140.4136  146.4160  161.7764 H       1  UNL1        0.1442
     19 H         141.0760  145.7587  160.3492 H       1  UNL1        0.1442
     20 N         145.3045  142.7884  157.4601 N.am    1  UNL1       -0.2641
     21 C         145.7343  141.5600  156.7144 C.2     1  UNL1        0.2701
     22 O         145.1471  140.2252  157.0661 O.2     1  UNL1       -0.2681
     23 H         145.6898  143.6644  157.2293 H       1  UNL1        0.1566
     24 C         146.7513  141.6663  155.6170 C.ar    1  UNL1        0.1560
     25 C         146.4896  141.4822  154.1515 C.ar    1  UNL1        0.0459
     26 C         147.7851  141.6775  153.4212 C.ar    1  UNL1        0.1023
     27 N         148.8476  141.9824  154.4353 N.ar    1  UNL1       -0.1912
     28 N         148.2087  141.9755  155.7924 N.ar    1  UNL1       -0.1602
     29 C         150.2948  142.2476  154.1435 C.3     1  UNL1        0.4298
     30 F         151.3383  141.2543  154.5610 F       1  UNL1       -0.1711
     31 F         150.6985  143.5061  153.4342 F       1  UNL1       -0.1711
@<TRIPOS>BOND
     1     7     6    1
     2     7     8    1
     3     9     8    1
     4     9    10    1
     5    10    11    1
     6    11    12    1
     7    12    13    1
     8    12    14    2
     9    14    15    1
    10    15     1    1
    11     1     2   ar
    12     2     3   ar
    13     3    20    1
    14    20    21   am
    15    21    22    2
    16    21    24    1
    17    24    25   ar
    18    25    26   ar
    19    26    27   ar
    20    27    29    1
    21    29    30    1
    22    29    31    1
    23    27    28   ar
    24     3     4   ar
    25     4     5   ar
    26    15    16    1
    27    16    17    1
    28    17     7    1
    29    15     9    1
    30     5     1   ar
    31    28    24   ar
    32    13    18    1
    33    13    19    1
    34    20    23    1
