@<TRIPOS>MOLECULE
*****
 30 34 0 0 0
SMALL
GASTEIGER

@<TRIPOS>ATOM
      1 C         143.1359  142.8708  159.2176 C.ar    1  UNL1        0.1670
      2 N         142.7680  142.4937  160.6220 N.ar    1  UNL1       -0.2221
      3 C         141.8314  143.5386  161.1522 C.ar    1  UNL1        0.1305
      4 C         141.1434  143.6907  162.4764 C.ar    1  UNL1        0.0765
      5 C         140.2444  144.8658  162.7238 C.ar    1  UNL1        0.0664
      6 BR        139.5563  145.0180  164.0480 Br      1  UNL1       -0.0461
      7 C         140.0336  145.8886  161.6471 C.ar    1  UNL1        0.0816
      8 N         140.7216  145.7365  160.3230 N.ar    1  UNL1       -0.3357
      9 C         141.6206  144.5614  160.0755 C.ar    1  UNL1        0.1613
     10 N         142.4268  144.1487  158.8798 N.ar    1  UNL1       -0.2080
     11 H         140.5833  146.4078  159.6163 H       1  UNL1        0.1675
     12 C         147.0604  141.6648  155.8973 C.3     1  UNL1        0.1538
     13 N         145.8561  141.5502  156.7840 N.ar    1  UNL1       -0.2472
     14 C         145.2282  142.6652  157.5667 C.ar    1  UNL1        0.0997
     15 C         144.0522  142.1046  158.3102 C.ar    1  UNL1        0.0754
     16 C         143.9533  140.6431  157.9870 C.ar    1  UNL1        0.1247
     17 N         145.0681  140.3005  157.0438 N.ar    1  UNL1       -0.1675
     18 N         141.3542  142.6679  163.5531 N.pl3   1  UNL1       -0.3030
     19 C         140.4689  141.4590  163.6230 C.3     1  UNL1        0.1082
     20 C         140.6797  140.4363  164.6998 C.3     1  UNL1        0.0941
     21 N         141.7759  140.6223  165.7066 N.3     1  UNL1       -0.2659
     22 C         142.6612  141.8312  165.6368 C.3     1  UNL1        0.0941
     23 C         142.4503  142.8539  164.5600 C.3     1  UNL1        0.1082
     24 C         141.9867  139.5996  166.7834 C.3     1  UNL1        0.1008
     25 C         141.5339  139.8822  168.1853 C.ar    1  UNL1        0.0130
     26 C         140.0782  140.1008  168.4736 C.ar    1  UNL1        0.0002
     27 C         139.6254  140.3833  169.8754 C.ar    1  UNL1        0.0204
     28 C         140.6283  140.4473  170.9890 C.ar    1  UNL1        0.0989
     29 N         142.0840  140.2287  170.7007 N.ar    1  UNL1       -0.2426
     30 C         142.5369  139.9461  169.2989 C.ar    1  UNL1        0.0959
@<TRIPOS>BOND
     1    12    13    1
     2    13    14   ar
     3    14    15   ar
     4    15     1    1
     5     1     2   ar
     6     2     3   ar
     7     3     4   ar
     8     4    18    1
     9    18    19    1
    10    19    20    1
    11    20    21    1
    12    21    24    1
    13    24    25    1
    14    25    26   ar
    15    26    27   ar
    16    27    28   ar
    17    28    29   ar
    18    29    30   ar
    19    21    22    1
    20    22    23    1
    21     4     5   ar
    22     5     6    1
    23     5     7   ar
    24     7     8   ar
    25     8     9   ar
    26     9    10   ar
    27    15    16   ar
    28    16    17   ar
    29    17    13   ar
    30    10     1   ar
    31     9     3    1
    32    23    18    1
    33    30    25   ar
    34     8    11    1
@<TRIPOS>MOLECULE
*****
 30 34 0 0 0
SMALL
GASTEIGER

@<TRIPOS>ATOM
      1 C         142.9301  135.1121  156.0751 C.ar    1  UNL1        0.1670
      2 N         142.1918  136.1776  156.8298 N.ar    1  UNL1       -0.2221
      3 C         142.9052  137.4789  156.6116 C.ar    1  UNL1        0.1305
      4 C         142.6334  138.8680  157.1080 C.ar    1  UNL1        0.0765
      5 C         143.5409  139.9959  156.7149 C.ar    1  UNL1        0.0664
      6 BR        143.2691  141.3851  157.2113 Br      1  UNL1       -0.0461
      7 C         144.7200  139.7346  155.8254 C.ar    1  UNL1        0.0816
      8 N         144.9918  138.3455  155.3289 N.ar    1  UNL1       -0.3357
      9 C         144.0844  137.2176  155.7220 C.ar    1  UNL1        0.1613
     10 N         144.0997  135.7548  155.3904 N.ar    1  UNL1       -0.2080
     11 H         145.7657  138.1740  154.7451 H       1  UNL1        0.1675
     12 C         140.5600  130.5811  154.7585 C.3     1  UNL1        0.1538
     13 N         141.4736  131.5762  155.4102 N.ar    1  UNL1       -0.2472
     14 C         141.4984  133.0532  155.1497 C.ar    1  UNL1        0.0997
     15 C         142.5631  133.6589  156.0154 C.ar    1  UNL1        0.0754
     16 C         143.1964  132.5562  156.8111 C.ar    1  UNL1        0.1247
     17 N         142.5232  131.2691  156.4370 N.ar    1  UNL1       -0.1675
     18 N         141.4543  139.1294  157.9976 N.pl3   1  UNL1       -0.3030
     19 C         141.5790  138.9470  159.4812 C.3     1  UNL1        0.1082
     20 C         140.3998  139.2084  160.3707 C.3     1  UNL1        0.0941
     21 N         139.0960  139.6521  159.7766 N.3     1  UNL1       -0.2659
     22 C         138.9712  139.8344  158.2930 C.3     1  UNL1        0.0941
     23 C         140.1504  139.5730  157.4035 C.3     1  UNL1        0.1082
     24 C         137.9168  139.9135  160.6661 C.3     1  UNL1        0.1008
     25 C         137.8910  141.1337  161.5381 C.ar    1  UNL1        0.0130
     26 C         137.5715  141.0056  162.9981 C.ar    1  UNL1        0.0002
     27 C         137.5457  142.2257  163.8701 C.ar    1  UNL1        0.0204
     28 C         137.8394  143.5741  163.2822 C.ar    1  UNL1        0.0989
     29 N         138.1589  143.7022  161.8222 N.ar    1  UNL1       -0.2426
     30 C         138.1847  142.4821  160.9502 C.ar    1  UNL1        0.0959
@<TRIPOS>BOND
     1    12    13    1
     2    13    14   ar
     3    14    15   ar
     4    15     1    1
     5     1     2   ar
     6     2     3   ar
     7     3     4   ar
     8     4    18    1
     9    18    19    1
    10    19    20    1
    11    20    21    1
    12    21    24    1
    13    24    25    1
    14    25    26   ar
    15    26    27   ar
    16    27    28   ar
    17    28    29   ar
    18    29    30   ar
    19    21    22    1
    20    22    23    1
    21     4     5   ar
    22     5     6    1
    23     5     7   ar
    24     7     8   ar
    25     8     9   ar
    26     9    10   ar
    27    15    16   ar
    28    16    17   ar
    29    17    13   ar
    30    10     1   ar
    31     9     3    1
    32    23    18    1
    33    30    25   ar
    34     8    11    1
@<TRIPOS>MOLECULE
*****
 30 34 0 0 0
SMALL
GASTEIGER

@<TRIPOS>ATOM
      1 C         143.3108  135.1041  156.2902 C.ar    1  UNL1        0.1670
      2 N         142.6029  135.8479  157.3837 N.ar    1  UNL1       -0.2221
      3 C         142.9546  137.3007  157.2590 C.ar    1  UNL1        0.1305
      4 C         142.5519  138.5032  158.0601 C.ar    1  UNL1        0.0765
      5 C         143.0745  139.8599  157.6906 C.ar    1  UNL1        0.0664
      6 BR        142.6717  141.0625  158.4917 Br      1  UNL1       -0.0461
      7 C         143.9996  140.0140  156.5201 C.ar    1  UNL1        0.0816
      8 N         144.4024  138.8115  155.7190 N.ar    1  UNL1       -0.3357
      9 C         143.8799  137.4549  156.0884 C.ar    1  UNL1        0.1613
     10 N         144.1000  136.0973  155.4897 N.ar    1  UNL1       -0.2080
     11 H         145.0096  138.9127  154.9507 H       1  UNL1        0.1675
     12 C         144.6853  130.0381  155.7182 C.3     1  UNL1        0.1538
     13 N         143.8734  131.2980  155.7781 N.ar    1  UNL1       -0.2472
     14 C         144.3955  132.6693  156.0896 C.ar    1  UNL1        0.0997
     15 C         143.2417  133.6266  156.0410 C.ar    1  UNL1        0.0754
     16 C         142.0065  132.8470  155.6994 C.ar    1  UNL1        0.1247
     17 N         142.3970  131.4078  155.5369 N.ar    1  UNL1       -0.1675
     18 N         141.6267  138.3491  159.2307 N.pl3   1  UNL1       -0.3030
     19 C         140.1496  138.5364  159.0489 C.3     1  UNL1        0.1082
     20 C         139.2244  138.3823  160.2196 C.3     1  UNL1        0.0941
     21 N         139.7764  138.0410  161.5719 N.3     1  UNL1       -0.2659
     22 C         141.2535  137.8538  161.7537 C.3     1  UNL1        0.0941
     23 C         142.1786  138.0078  160.5830 C.3     1  UNL1        0.1082
     24 C         138.8513  137.8869  162.7425 C.3     1  UNL1        0.1008
     25 C         138.9776  138.8026  163.9240 C.ar    1  UNL1        0.0130
     26 C         138.8467  138.2553  165.3144 C.ar    1  UNL1        0.0002
     27 C         138.9731  139.1709  166.4958 C.ar    1  UNL1        0.0204
     28 C         139.2304  140.6338  166.2867 C.ar    1  UNL1        0.0989
     29 N         139.3613  141.1811  164.8963 N.ar    1  UNL1       -0.2426
     30 C         139.2349  140.2655  163.7149 C.ar    1  UNL1        0.0959
@<TRIPOS>BOND
     1    12    13    1
     2    13    14   ar
     3    14    15   ar
     4    15     1    1
     5     1     2   ar
     6     2     3   ar
     7     3     4   ar
     8     4    18    1
     9    18    19    1
    10    19    20    1
    11    20    21    1
    12    21    24    1
    13    24    25    1
    14    25    26   ar
    15    26    27   ar
    16    27    28   ar
    17    28    29   ar
    18    29    30   ar
    19    21    22    1
    20    22    23    1
    21     4     5   ar
    22     5     6    1
    23     5     7   ar
    24     7     8   ar
    25     8     9   ar
    26     9    10   ar
    27    15    16   ar
    28    16    17   ar
    29    17    13   ar
    30    10     1   ar
    31     9     3    1
    32    23    18    1
    33    30    25   ar
    34     8    11    1
@<TRIPOS>MOLECULE
*****
 30 34 0 0 0
SMALL
GASTEIGER

@<TRIPOS>ATOM
      1 C         142.9626  137.1816  157.2663 C.ar    1  UNL1        0.1670
      2 N         142.9066  137.7121  158.6683 N.ar    1  UNL1       -0.2221
      3 C         143.2521  139.1712  158.6258 C.ar    1  UNL1        0.1305
      4 C         143.3561  140.2097  159.7031 C.ar    1  UNL1        0.0765
      5 C         143.7297  141.6195  159.3522 C.ar    1  UNL1        0.0664
      6 BR        143.8337  142.6581  160.4296 Br      1  UNL1       -0.0461
      7 C         143.9992  141.9906  157.9242 C.ar    1  UNL1        0.0816
      8 N         143.8952  140.9521  156.8469 N.ar    1  UNL1       -0.3357
      9 C         143.5217  139.5424  157.1977 C.ar    1  UNL1        0.1613
     10 N         143.3428  138.3127  156.3575 N.ar    1  UNL1       -0.2080
     11 H         144.0722  141.1957  155.9095 H       1  UNL1        0.1675
     12 C         143.1489  131.9153  156.9326 C.3     1  UNL1        0.1538
     13 N         142.7725  133.3473  156.6935 N.ar    1  UNL1       -0.2472
     14 C         143.3499  134.5400  157.3966 C.ar    1  UNL1        0.0997
     15 C         142.6869  135.7681  156.8469 C.ar    1  UNL1        0.0754
     16 C         141.6997  135.3345  155.8040 C.ar    1  UNL1        0.1247
     17 N         141.7526  133.8385  155.7092 N.ar    1  UNL1       -0.1675
     18 N         143.0865  139.8386  161.1313 N.pl3   1  UNL1       -0.3030
     19 C         144.2222  139.4594  162.0349 C.3     1  UNL1        0.1082
     20 C         143.9526  139.0883  163.4630 C.3     1  UNL1        0.0941
     21 N         142.5473  139.0963  163.9875 N.3     1  UNL1       -0.2659
     22 C         141.4116  139.4755  163.0840 C.3     1  UNL1        0.0941
     23 C         141.6813  139.8466  161.6558 C.3     1  UNL1        0.1082
     24 C         142.2776  138.7252  165.4157 C.3     1  UNL1        0.1008
     25 C         142.5394  139.7167  166.5105 C.ar    1  UNL1        0.0130
     26 C         142.6679  141.1756  166.1862 C.ar    1  UNL1        0.0002
     27 C         142.9297  142.1670  167.2809 C.ar    1  UNL1        0.0204
     28 C         143.0630  141.6996  168.7000 C.ar    1  UNL1        0.0989
     29 N         142.9346  140.2407  169.0242 N.ar    1  UNL1       -0.2426
     30 C         142.6728  139.2492  167.9295 C.ar    1  UNL1        0.0959
@<TRIPOS>BOND
     1    12    13    1
     2    13    14   ar
     3    14    15   ar
     4    15     1    1
     5     1     2   ar
     6     2     3   ar
     7     3     4   ar
     8     4    18    1
     9    18    19    1
    10    19    20    1
    11    20    21    1
    12    21    24    1
    13    24    25    1
    14    25    26   ar
    15    26    27   ar
    16    27    28   ar
    17    28    29   ar
    18    29    30   ar
    19    21    22    1
    20    22    23    1
    21     4     5   ar
    22     5     6    1
    23     5     7   ar
    24     7     8   ar
    25     8     9   ar
    26     9    10   ar
    27    15    16   ar
    28    16    17   ar
    29    17    13   ar
    30    10     1   ar
    31     9     3    1
    32    23    18    1
    33    30    25   ar
    34     8    11    1
@<TRIPOS>MOLECULE
*****
 30 34 0 0 0
SMALL
GASTEIGER

@<TRIPOS>ATOM
      1 C         142.9165  136.5573  156.7678 C.ar    1  UNL1        0.1670
      2 N         142.8794  137.2987  158.0713 N.ar    1  UNL1       -0.2221
      3 C         143.2091  138.7360  157.7965 C.ar    1  UNL1        0.1305
      4 C         143.3211  139.9300  158.6975 C.ar    1  UNL1        0.0765
      5 C         143.6740  141.2709  158.1252 C.ar    1  UNL1        0.0664
      6 BR        143.7860  142.4650  159.0262 Br      1  UNL1       -0.0461
      7 C         143.9148  141.4178  156.6521 C.ar    1  UNL1        0.0816
      8 N         143.8028  140.2238  155.7510 N.ar    1  UNL1       -0.3357
      9 C         143.4499  138.8829  156.3233 C.ar    1  UNL1        0.1613
     10 N         143.2691  137.5364  155.6875 N.ar    1  UNL1       -0.2080
     11 H         143.9609  140.3202  154.7841 H       1  UNL1        0.1675
     12 C         141.0099  132.0027  154.8966 C.3     1  UNL1        0.1538
     13 N         141.7717  133.0002  155.7179 N.ar    1  UNL1       -0.2472
     14 C         141.7406  134.4902  155.5474 C.ar    1  UNL1        0.0997
     15 C         142.6481  135.0938  156.5780 C.ar    1  UNL1        0.0754
     16 C         143.2401  133.9769  157.3855 C.ar    1  UNL1        0.1247
     17 N         142.6985  132.6830  156.8539 N.ar    1  UNL1       -0.1675
     18 N         143.0802  139.7831  160.1708 N.pl3   1  UNL1       -0.3030
     19 C         144.1209  139.1428  161.0407 C.3     1  UNL1        0.1082
     20 C         143.8800  138.9960  162.5140 C.3     1  UNL1        0.0941
     21 N         142.5984  139.4896  163.1172 N.3     1  UNL1       -0.2659
     22 C         141.5577  140.1299  162.2472 C.3     1  UNL1        0.0941
     23 C         141.7986  140.2767  160.7740 C.3     1  UNL1        0.1082
     24 C         142.3574  139.3428  164.5904 C.3     1  UNL1        0.1008
     25 C         140.9752  139.0597  165.0998 C.ar    1  UNL1        0.0130
     26 C         140.2831  137.7838  164.7213 C.ar    1  UNL1        0.0002
     27 C         138.9010  137.5007  165.2307 C.ar    1  UNL1        0.0204
     28 C         138.2109  138.4935  166.1185 C.ar    1  UNL1        0.0989
     29 N         138.9030  139.7693  166.4969 N.ar    1  UNL1       -0.2426
     30 C         140.2851  140.0524  165.9876 C.ar    1  UNL1        0.0959
@<TRIPOS>BOND
     1    12    13    1
     2    13    14   ar
     3    14    15   ar
     4    15     1    1
     5     1     2   ar
     6     2     3   ar
     7     3     4   ar
     8     4    18    1
     9    18    19    1
    10    19    20    1
    11    20    21    1
    12    21    24    1
    13    24    25    1
    14    25    26   ar
    15    26    27   ar
    16    27    28   ar
    17    28    29   ar
    18    29    30   ar
    19    21    22    1
    20    22    23    1
    21     4     5   ar
    22     5     6    1
    23     5     7   ar
    24     7     8   ar
    25     8     9   ar
    26     9    10   ar
    27    15    16   ar
    28    16    17   ar
    29    17    13   ar
    30    10     1   ar
    31     9     3    1
    32    23    18    1
    33    30    25   ar
    34     8    11    1
@<TRIPOS>MOLECULE
*****
 30 34 0 0 0
SMALL
GASTEIGER

@<TRIPOS>ATOM
      1 C         142.9060  140.4789  159.2557 C.ar    1  UNL1        0.1670
      2 N         142.7003  140.6423  160.7325 N.ar    1  UNL1       -0.2221
      3 C         141.4716  139.8728  161.1173 C.ar    1  UNL1        0.1305
      4 C         140.7854  139.6714  162.4358 C.ar    1  UNL1        0.0765
      5 C         139.5454  138.8310  162.5153 C.ar    1  UNL1        0.0664
      6 BR        138.8592  138.6296  163.8339 Br      1  UNL1       -0.0461
      7 C         138.9917  138.1921  161.2764 C.ar    1  UNL1        0.0816
      8 N         139.6779  138.3934  159.9578 N.ar    1  UNL1       -0.3357
      9 C         140.9179  139.2338  159.8783 C.ar    1  UNL1        0.1613
     10 N         141.8044  139.6084  158.7277 N.ar    1  UNL1       -0.2080
     11 H         139.3145  137.9741  159.1447 H       1  UNL1        0.1675
     12 C         146.5263  141.2578  155.4917 C.3     1  UNL1        0.1538
     13 N         145.6822  141.4384  156.7183 N.ar    1  UNL1       -0.2472
     14 C         144.5953  140.5155  157.1845 C.ar    1  UNL1        0.0997
     15 C         144.0180  141.0804  158.4485 C.ar    1  UNL1        0.0754
     16 C         144.7481  142.3523  158.7636 C.ar    1  UNL1        0.1247
     17 N         145.7765  142.5735  157.6943 N.ar    1  UNL1       -0.1675
     18 N         141.3391  140.3104  163.6749 N.pl3   1  UNL1       -0.3030
     19 C         140.8890  141.6840  164.0756 C.3     1  UNL1        0.1082
     20 C         141.4427  142.3228  165.3147 C.3     1  UNL1        0.0941
     21 N         142.4465  141.5881  166.1529 N.3     1  UNL1       -0.2659
     22 C         142.8966  140.2145  165.7522 C.3     1  UNL1        0.0941
     23 C         142.3428  139.5757  164.5131 C.3     1  UNL1        0.1082
     24 C         143.0002  142.2270  167.3920 C.3     1  UNL1        0.1008
     25 C         142.2630  142.1044  168.6926 C.ar    1  UNL1        0.0130
     26 C         141.0238  142.9151  168.9317 C.ar    1  UNL1        0.0002
     27 C         140.2866  142.7926  170.2322 C.ar    1  UNL1        0.0204
     28 C         140.7886  141.8592  171.2937 C.ar    1  UNL1        0.0989
     29 N         142.0278  141.0485  171.0547 N.ar    1  UNL1       -0.2426
     30 C         142.7650  141.1710  169.7542 C.ar    1  UNL1        0.0959
@<TRIPOS>BOND
     1    12    13    1
     2    13    14   ar
     3    14    15   ar
     4    15     1    1
     5     1     2   ar
     6     2     3   ar
     7     3     4   ar
     8     4    18    1
     9    18    19    1
    10    19    20    1
    11    20    21    1
    12    21    24    1
    13    24    25    1
    14    25    26   ar
    15    26    27   ar
    16    27    28   ar
    17    28    29   ar
    18    29    30   ar
    19    21    22    1
    20    22    23    1
    21     4     5   ar
    22     5     6    1
    23     5     7   ar
    24     7     8   ar
    25     8     9   ar
    26     9    10   ar
    27    15    16   ar
    28    16    17   ar
    29    17    13   ar
    30    10     1   ar
    31     9     3    1
    32    23    18    1
    33    30    25   ar
    34     8    11    1
@<TRIPOS>MOLECULE
*****
 30 34 0 0 0
SMALL
GASTEIGER

@<TRIPOS>ATOM
      1 C         141.8883  140.7370  159.0423 C.ar    1  UNL1        0.1670
      2 N         141.5159  141.1357  160.4395 N.ar    1  UNL1       -0.2221
      3 C         141.1322  142.5857  160.4211 C.ar    1  UNL1        0.1305
      4 C         140.6771  143.5173  161.5050 C.ar    1  UNL1        0.0765
      5 C         140.3573  144.9464  161.1802 C.ar    1  UNL1        0.0664
      6 BR        139.9022  145.8782  162.2642 Br      1  UNL1       -0.0461
      7 C         140.4927  145.4438  159.7716 C.ar    1  UNL1        0.0816
      8 N         140.9478  144.5122  158.6877 N.ar    1  UNL1       -0.3357
      9 C         141.2675  143.0831  159.0124 C.ar    1  UNL1        0.1613
     10 N         141.7349  141.9405  158.1603 N.ar    1  UNL1       -0.2080
     11 H         141.0366  144.8387  157.7632 H       1  UNL1        0.1675
     12 C         143.3786  136.6712  156.0209 C.3     1  UNL1        0.1538
     13 N         143.0207  137.5051  157.2151 N.ar    1  UNL1       -0.2472
     14 C         142.5931  138.9427  157.1905 C.ar    1  UNL1        0.0997
     15 C         142.3357  139.3740  158.6040 C.ar    1  UNL1        0.0754
     16 C         142.6042  138.2030  159.5021 C.ar    1  UNL1        0.1247
     17 N         143.0276  137.0480  158.6438 N.ar    1  UNL1       -0.1675
     18 N         140.5417  143.0199  162.9137 N.pl3   1  UNL1       -0.3030
     19 C         139.2915  142.3101  163.3415 C.3     1  UNL1        0.1082
     20 C         139.1563  141.8128  164.7502 C.3     1  UNL1        0.0941
     21 N         140.2712  142.0253  165.7310 N.3     1  UNL1       -0.2659
     22 C         141.5214  142.7351  165.3031 C.3     1  UNL1        0.0941
     23 C         141.6566  143.2325  163.8944 C.3     1  UNL1        0.1082
     24 C         140.1359  141.5280  167.1396 C.3     1  UNL1        0.1008
     25 C         141.0329  142.0666  168.2146 C.ar    1  UNL1        0.0130
     26 C         142.4317  141.5437  168.3559 C.ar    1  UNL1        0.0002
     27 C         143.3287  142.0822  169.4307 C.ar    1  UNL1        0.0204
     28 C         142.8269  143.1437  170.3643 C.ar    1  UNL1        0.0989
     29 N         141.4281  143.6666  170.2229 N.ar    1  UNL1       -0.2426
     30 C         140.5311  143.1281  169.1481 C.ar    1  UNL1        0.0959
@<TRIPOS>BOND
     1    12    13    1
     2    13    14   ar
     3    14    15   ar
     4    15     1    1
     5     1     2   ar
     6     2     3   ar
     7     3     4   ar
     8     4    18    1
     9    18    19    1
    10    19    20    1
    11    20    21    1
    12    21    24    1
    13    24    25    1
    14    25    26   ar
    15    26    27   ar
    16    27    28   ar
    17    28    29   ar
    18    29    30   ar
    19    21    22    1
    20    22    23    1
    21     4     5   ar
    22     5     6    1
    23     5     7   ar
    24     7     8   ar
    25     8     9   ar
    26     9    10   ar
    27    15    16   ar
    28    16    17   ar
    29    17    13   ar
    30    10     1   ar
    31     9     3    1
    32    23    18    1
    33    30    25   ar
    34     8    11    1
@<TRIPOS>MOLECULE
*****
 30 34 0 0 0
SMALL
GASTEIGER

@<TRIPOS>ATOM
      1 C         143.0807  136.2534  157.0925 C.ar    1  UNL1        0.1670
      2 N         143.0128  136.8987  158.4449 N.ar    1  UNL1       -0.2221
      3 C         142.6110  138.3314  158.2551 C.ar    1  UNL1        0.1305
      4 C         142.3861  139.4483  159.2307 C.ar    1  UNL1        0.0765
      5 C         141.9809  140.8054  158.7366 C.ar    1  UNL1        0.0664
      6 BR        141.7560  141.9225  159.7122 Br      1  UNL1       -0.0461
      7 C         141.8005  141.0455  157.2671 C.ar    1  UNL1        0.0816
      8 N         142.0254  139.9286  156.2914 N.ar    1  UNL1       -0.3357
      9 C         142.4307  138.5715  156.7855 C.ar    1  UNL1        0.1613
     10 N         142.7209  137.2872  156.0669 N.ar    1  UNL1       -0.2080
     11 H         141.9070  140.0862  155.3269 H       1  UNL1        0.1675
     12 C         144.6534  131.2545  157.7394 C.3     1  UNL1        0.1538
     13 N         144.1674  132.5272  157.1118 N.ar    1  UNL1       -0.2472
     14 C         143.9222  133.8241  157.8245 C.ar    1  UNL1        0.0997
     15 C         143.4445  134.8250  156.8145 C.ar    1  UNL1        0.0754
     16 C         143.3946  134.1467  155.4775 C.ar    1  UNL1        0.1247
     17 N         143.8414  132.7266  155.6613 N.ar    1  UNL1       -0.1675
     18 N         142.5665  139.2083  160.7004 N.pl3   1  UNL1       -0.3030
     19 C         141.3809  138.8764  161.5572 C.3     1  UNL1        0.1082
     20 C         141.5613  138.6364  163.0268 C.3     1  UNL1        0.0941
     21 N         142.9274  138.7283  163.6396 N.3     1  UNL1       -0.2659
     22 C         144.1130  139.0601  162.7828 C.3     1  UNL1        0.0941
     23 C         143.9325  139.3001  161.3132 C.3     1  UNL1        0.1082
     24 C         143.1078  138.4882  165.1092 C.3     1  UNL1        0.1008
     25 C         143.0120  139.6333  166.0735 C.ar    1  UNL1        0.0130
     26 C         142.7662  139.3692  167.5295 C.ar    1  UNL1        0.0002
     27 C         142.6704  140.5141  168.4938 C.ar    1  UNL1        0.0204
     28 C         142.8204  141.9233  168.0020 C.ar    1  UNL1        0.0989
     29 N         143.0662  142.1874  166.5461 N.ar    1  UNL1       -0.2426
     30 C         143.1620  141.0425  165.5818 C.ar    1  UNL1        0.0959
@<TRIPOS>BOND
     1    12    13    1
     2    13    14   ar
     3    14    15   ar
     4    15     1    1
     5     1     2   ar
     6     2     3   ar
     7     3     4   ar
     8     4    18    1
     9    18    19    1
    10    19    20    1
    11    20    21    1
    12    21    24    1
    13    24    25    1
    14    25    26   ar
    15    26    27   ar
    16    27    28   ar
    17    28    29   ar
    18    29    30   ar
    19    21    22    1
    20    22    23    1
    21     4     5   ar
    22     5     6    1
    23     5     7   ar
    24     7     8   ar
    25     8     9   ar
    26     9    10   ar
    27    15    16   ar
    28    16    17   ar
    29    17    13   ar
    30    10     1   ar
    31     9     3    1
    32    23    18    1
    33    30    25   ar
    34     8    11    1
@<TRIPOS>MOLECULE
*****
 30 34 0 0 0
SMALL
GASTEIGER

@<TRIPOS>ATOM
      1 C         139.5705  141.1283  158.8498 C.ar    1  UNL1        0.1670
      2 N         139.6138  141.0999  160.3489 N.ar    1  UNL1       -0.2221
      3 C         139.7531  142.5120  160.8353 C.ar    1  UNL1        0.1305
      4 C         139.8466  143.0937  162.2147 C.ar    1  UNL1        0.0765
      5 C         139.9828  144.5766  162.3957 C.ar    1  UNL1        0.0664
      6 BR        140.0762  145.1584  163.7752 Br      1  UNL1       -0.0461
      7 C         140.0255  145.4776  161.1973 C.ar    1  UNL1        0.0816
      8 N         139.9321  144.8958  159.8178 N.ar    1  UNL1       -0.3357
      9 C         139.7959  143.4130  159.6369 C.ar    1  UNL1        0.1613
     10 N         139.6830  142.5579  158.4097 N.ar    1  UNL1       -0.2080
     11 H         139.9601  145.4872  159.0313 H       1  UNL1        0.1675
     12 C         138.5390  138.0966  154.6515 C.3     1  UNL1        0.1538
     13 N         138.9638  138.5428  156.0191 N.ar    1  UNL1       -0.2472
     14 C         138.9229  139.9488  156.5401 C.ar    1  UNL1        0.0997
     15 C         139.4379  139.9363  157.9489 C.ar    1  UNL1        0.0754
     16 C         139.7971  138.5225  158.2986 C.ar    1  UNL1        0.1247
     17 N         139.5040  137.6613  157.1059 N.ar    1  UNL1       -0.1675
     18 N         139.8039  142.1927  163.4133 N.pl3   1  UNL1       -0.3030
     19 C         141.0767  141.6360  163.9788 C.3     1  UNL1        0.1082
     20 C         141.0339  140.7350  165.1773 C.3     1  UNL1        0.0941
     21 N         139.7183  140.3908  165.8102 N.3     1  UNL1       -0.2659
     22 C         138.4454  140.9475  165.2447 C.3     1  UNL1        0.0941
     23 C         138.4882  141.8485  164.0462 C.3     1  UNL1        0.1082
     24 C         139.6755  139.4898  167.0087 C.3     1  UNL1        0.1008
     25 C         140.2524  139.9506  168.3144 C.ar    1  UNL1        0.0130
     26 C         141.7300  139.8581  168.5558 C.ar    1  UNL1        0.0002
     27 C         142.3070  140.3189  169.8614 C.ar    1  UNL1        0.0204
     28 C         141.4064  140.8722  170.9257 C.ar    1  UNL1        0.0989
     29 N         139.9288  140.9647  170.6844 N.ar    1  UNL1       -0.2426
     30 C         139.3518  140.5039  169.3788 C.ar    1  UNL1        0.0959
@<TRIPOS>BOND
     1    12    13    1
     2    13    14   ar
     3    14    15   ar
     4    15     1    1
     5     1     2   ar
     6     2     3   ar
     7     3     4   ar
     8     4    18    1
     9    18    19    1
    10    19    20    1
    11    20    21    1
    12    21    24    1
    13    24    25    1
    14    25    26   ar
    15    26    27   ar
    16    27    28   ar
    17    28    29   ar
    18    29    30   ar
    19    21    22    1
    20    22    23    1
    21     4     5   ar
    22     5     6    1
    23     5     7   ar
    24     7     8   ar
    25     8     9   ar
    26     9    10   ar
    27    15    16   ar
    28    16    17   ar
    29    17    13   ar
    30    10     1   ar
    31     9     3    1
    32    23    18    1
    33    30    25   ar
    34     8    11    1
