@<TRIPOS>MOLECULE
*****
 35 38 0 0 0
SMALL
GASTEIGER

@<TRIPOS>ATOM
      1 C         140.8121  140.5578  164.6184 C.2     1  UNL1       -0.0040
      2 C         139.3640  140.1745  164.5408 C.2     1  UNL1       -0.0221
      3 C         143.4266  141.3378  169.9622 C.3     1  UNL1        0.0310
      4 C         142.7730  141.1428  168.6262 C.ar    1  UNL1       -0.0218
      5 C         142.1961  142.3184  167.8948 C.ar    1  UNL1       -0.0043
      6 C         141.5424  142.1234  166.5589 C.ar    1  UNL1       -0.0003
      7 C         141.4657  140.7528  165.9544 C.ar    1  UNL1       -0.0003
      8 C         142.0426  139.5772  166.6858 C.ar    1  UNL1       -0.0003
      9 C         142.6962  139.7722  168.0217 C.ar    1  UNL1       -0.0043
     10 C         138.7104  139.9795  163.2048 C.ar    1  UNL1       -0.0040
     11 C         138.3242  141.1698  162.3779 C.ar    1  UNL1       -0.0003
     12 C         137.6706  140.9748  161.0420 C.ar    1  UNL1       -0.0000
     13 C         137.4031  139.5895  160.5329 C.ar    1  UNL1       -0.0000
     14 C         137.7893  138.3990  161.3599 C.ar    1  UNL1       -0.0000
     15 C         138.4429  138.5940  162.6958 C.ar    1  UNL1       -0.0003
     16 C         141.6065  140.7462  163.3601 C.ar    1  UNL1       -0.0002
     17 C         141.7695  142.1174  162.7742 C.ar    1  UNL1        0.0013
     18 C         142.5639  142.3057  161.5159 C.ar    1  UNL1        0.0145
     19 C         143.1954  141.1229  160.8435 C.ar    1  UNL1        0.0479
     20 C         143.0325  139.7517  161.4294 C.ar    1  UNL1        0.0145
     21 C         142.2380  139.5633  162.6877 C.ar    1  UNL1        0.0013
     22 N         143.9899  141.3113  159.5851 N.pl3   1  UNL1       -0.3046
     23 C         143.8925  140.3033  158.4786 C.3     1  UNL1        0.1081
     24 C         144.6869  140.4917  157.2204 C.3     1  UNL1        0.0938
     25 N         145.5788  141.6882  157.0686 N.3     1  UNL1       -0.2711
     26 C         145.6763  142.6962  158.1751 C.3     1  UNL1        0.0938
     27 C         144.8818  142.5077  159.4334 C.3     1  UNL1        0.1081
     28 C         146.3733  141.8766  155.8102 C.3     1  UNL1        0.0577
     29 C         145.7233  141.6680  154.4746 C.3     1  UNL1        0.0173
     30 C         147.8177  142.2736  155.8876 C.3     1  UNL1        0.0173
     31 C         138.5695  139.9861  165.7991 C.3     1  UNL1        0.0289
     32 C         138.4085  138.6153  166.3863 C.3     1  UNL1        0.0364
     33 C         137.3325  138.3545  167.3984 C.3     1  UNL1        0.1375
     34 O         136.9316  136.9455  167.7208 O.3     1  UNL1       -0.3820
     35 H         136.5227  136.5391  166.9407 H       1  UNL1        0.2104
@<TRIPOS>BOND
     1     3     4    1
     2     4     5   ar
     3     5     6   ar
     4     6     7   ar
     5     7     1    1
     6     1     2    2
     7     2    31    1
     8    31    32    1
     9    32    33    1
    10    33    34    1
    11     2    10    1
    12    10    11   ar
    13    11    12   ar
    14    12    13   ar
    15    13    14   ar
    16    14    15   ar
    17     1    16    1
    18    16    17   ar
    19    17    18   ar
    20    18    19   ar
    21    19    22    1
    22    22    23    1
    23    23    24    1
    24    24    25    1
    25    25    28    1
    26    28    29    1
    27    28    30    1
    28    25    26    1
    29    26    27    1
    30    19    20   ar
    31    20    21   ar
    32     7     8   ar
    33     8     9   ar
    34     9     4   ar
    35    15    10   ar
    36    21    16   ar
    37    27    22    1
    38    34    35    1
@<TRIPOS>MOLECULE
*****
 35 38 0 0 0
SMALL
GASTEIGER

@<TRIPOS>ATOM
      1 C         141.0004  140.1687  165.2283 C.2     1  UNL1       -0.0040
      2 C         142.3761  140.0981  165.8217 C.2     1  UNL1       -0.0221
      3 C         136.3970  137.4987  167.9997 C.3     1  UNL1        0.0310
      4 C         137.5479  138.1662  167.3068 C.ar    1  UNL1       -0.0218
      5 C         138.1042  137.5805  166.0430 C.ar    1  UNL1       -0.0043
      6 C         139.2551  138.2480  165.3501 C.ar    1  UNL1       -0.0003
      7 C         139.8495  139.5012  165.9211 C.ar    1  UNL1       -0.0003
      8 C         139.2932  140.0869  167.1850 C.ar    1  UNL1       -0.0003
      9 C         138.1423  139.4194  167.8778 C.ar    1  UNL1       -0.0043
     10 C         143.5270  140.7656  165.1288 C.ar    1  UNL1       -0.0040
     11 C         144.3709  139.9909  164.1606 C.ar    1  UNL1       -0.0003
     12 C         145.5217  140.6584  163.4677 C.ar    1  UNL1       -0.0000
     13 C         145.8286  142.1006  163.7431 C.ar    1  UNL1       -0.0000
     14 C         144.9846  142.8754  164.7114 C.ar    1  UNL1       -0.0000
     15 C         143.8338  142.2079  165.4043 C.ar    1  UNL1       -0.0003
     16 C         140.7754  140.9068  163.9420 C.ar    1  UNL1       -0.0002
     17 C         140.3659  142.3496  163.9669 C.ar    1  UNL1        0.0013
     18 C         140.1409  143.0877  162.6806 C.ar    1  UNL1        0.0145
     19 C         140.3255  142.3830  161.3693 C.ar    1  UNL1        0.0479
     20 C         140.7350  140.9402  161.3444 C.ar    1  UNL1        0.0145
     21 C         140.9600  140.2021  162.6307 C.ar    1  UNL1        0.0013
     22 N         140.1005  143.1212  160.0830 N.pl3   1  UNL1       -0.3046
     23 C         139.2802  142.4967  158.9935 C.3     1  UNL1        0.1081
     24 C         139.0553  143.2348  157.7073 C.3     1  UNL1        0.0938
     25 N         139.6506  144.5975  157.5105 N.3     1  UNL1       -0.2711
     26 C         140.4710  145.2220  158.6000 C.3     1  UNL1        0.0938
     27 C         140.6959  144.4838  159.8863 C.3     1  UNL1        0.1081
     28 C         139.4257  145.3356  156.2242 C.3     1  UNL1        0.0577
     29 C         140.3206  146.4796  155.8495 C.3     1  UNL1        0.0173
     30 C         138.3057  144.9298  155.3126 C.3     1  UNL1        0.0173
     31 C         142.6011  139.3600  167.1081 C.3     1  UNL1        0.0289
     32 C         142.6929  140.1159  168.4003 C.3     1  UNL1        0.0364
     33 C         142.1963  139.4923  169.6710 C.3     1  UNL1        0.1375
     34 O         142.8670  138.2667  170.2170 O.3     1  UNL1       -0.3820
     35 H         142.7300  137.5246  169.6076 H       1  UNL1        0.2104
@<TRIPOS>BOND
     1     3     4    1
     2     4     5   ar
     3     5     6   ar
     4     6     7   ar
     5     7     1    1
     6     1     2    2
     7     2    31    1
     8    31    32    1
     9    32    33    1
    10    33    34    1
    11     2    10    1
    12    10    11   ar
    13    11    12   ar
    14    12    13   ar
    15    13    14   ar
    16    14    15   ar
    17     1    16    1
    18    16    17   ar
    19    17    18   ar
    20    18    19   ar
    21    19    22    1
    22    22    23    1
    23    23    24    1
    24    24    25    1
    25    25    28    1
    26    28    29    1
    27    28    30    1
    28    25    26    1
    29    26    27    1
    30    19    20   ar
    31    20    21   ar
    32     7     8   ar
    33     8     9   ar
    34     9     4   ar
    35    15    10   ar
    36    21    16   ar
    37    27    22    1
    38    34    35    1
@<TRIPOS>MOLECULE
*****
 35 38 0 0 0
SMALL
GASTEIGER

@<TRIPOS>ATOM
      1 C         141.9890  140.8036  164.7590 C.2     1  UNL1       -0.0040
      2 C         142.4225  139.3725  164.6402 C.2     1  UNL1       -0.0221
      3 C         141.3409  143.3022  170.1753 C.3     1  UNL1        0.0310
      4 C         141.5030  142.6776  168.8212 C.ar    1  UNL1       -0.0218
      5 C         140.2958  142.2227  168.0558 C.ar    1  UNL1       -0.0043
      6 C         140.4579  141.5981  166.7017 C.ar    1  UNL1       -0.0003
      7 C         141.8270  141.4282  166.1130 C.ar    1  UNL1       -0.0003
      8 C         143.0341  141.8831  166.8785 C.ar    1  UNL1       -0.0003
      9 C         142.8721  142.5077  168.2326 C.ar    1  UNL1       -0.0043
     10 C         142.5845  138.7479  163.2861 C.ar    1  UNL1       -0.0040
     11 C         143.9439  138.6609  162.6581 C.ar    1  UNL1       -0.0003
     12 C         144.1059  138.0362  161.3040 C.ar    1  UNL1       -0.0000
     13 C         142.9086  137.4985  160.5779 C.ar    1  UNL1       -0.0000
     14 C         141.5491  137.5855  161.2059 C.ar    1  UNL1       -0.0000
     15 C         141.3871  138.2102  162.5600 C.ar    1  UNL1       -0.0003
     16 C         141.7176  141.6100  163.5237 C.ar    1  UNL1       -0.0002
     17 C         140.3198  141.7169  162.9899 C.ar    1  UNL1        0.0013
     18 C         140.0484  142.5233  161.7546 C.ar    1  UNL1        0.0145
     19 C         141.1746  143.2228  161.0530 C.ar    1  UNL1        0.0479
     20 C         142.5723  143.1159  161.5867 C.ar    1  UNL1        0.0145
     21 C         142.8438  142.3095  162.8221 C.ar    1  UNL1        0.0013
     22 N         140.9031  144.0292  159.8176 N.pl3   1  UNL1       -0.3046
     23 C         141.2040  143.4541  158.4654 C.3     1  UNL1        0.1081
     24 C         140.9325  144.2605  157.2301 C.3     1  UNL1        0.0938
     25 N         140.3601  145.6420  157.3471 N.3     1  UNL1       -0.2711
     26 C         140.0592  146.2172  158.6994 C.3     1  UNL1        0.0938
     27 C         140.3307  145.4107  159.9346 C.3     1  UNL1        0.1081
     28 C         140.0886  146.4484  156.1117 C.3     1  UNL1        0.0577
     29 C         139.0437  147.5243  156.1330 C.3     1  UNL1        0.0173
     30 C         140.8620  146.1789  154.8551 C.3     1  UNL1        0.0173
     31 C         142.6940  138.5661  165.8755 C.3     1  UNL1        0.0289
     32 C         144.1059  138.2406  166.2635 C.3     1  UNL1        0.0364
     33 C         144.3742  137.2302  167.3392 C.3     1  UNL1        0.1375
     34 O         145.6616  136.4604  167.3409 O.3     1  UNL1       -0.3820
     35 H         145.6934  135.8818  166.5630 H       1  UNL1        0.2104
@<TRIPOS>BOND
     1     3     4    1
     2     4     5   ar
     3     5     6   ar
     4     6     7   ar
     5     7     1    1
     6     1     2    2
     7     2    31    1
     8    31    32    1
     9    32    33    1
    10    33    34    1
    11     2    10    1
    12    10    11   ar
    13    11    12   ar
    14    12    13   ar
    15    13    14   ar
    16    14    15   ar
    17     1    16    1
    18    16    17   ar
    19    17    18   ar
    20    18    19   ar
    21    19    22    1
    22    22    23    1
    23    23    24    1
    24    24    25    1
    25    25    28    1
    26    28    29    1
    27    28    30    1
    28    25    26    1
    29    26    27    1
    30    19    20   ar
    31    20    21   ar
    32     7     8   ar
    33     8     9   ar
    34     9     4   ar
    35    15    10   ar
    36    21    16   ar
    37    27    22    1
    38    34    35    1
@<TRIPOS>MOLECULE
*****
 35 38 0 0 0
SMALL
GASTEIGER

@<TRIPOS>ATOM
      1 C         140.5608  140.9534  164.2305 C.2     1  UNL1       -0.0040
      2 C         141.7302  141.5740  164.9355 C.2     1  UNL1       -0.0221
      3 C         137.2334  136.8091  167.0150 C.3     1  UNL1        0.0310
      4 C         138.0652  137.8451  166.3188 C.ar    1  UNL1       -0.0218
      5 C         137.9927  139.2796  166.7511 C.ar    1  UNL1       -0.0043
      6 C         138.8246  140.3157  166.0550 C.ar    1  UNL1       -0.0003
      7 C         139.7289  139.9173  164.9266 C.ar    1  UNL1       -0.0003
      8 C         139.8014  138.4828  164.4943 C.ar    1  UNL1       -0.0003
      9 C         138.9696  137.4467  165.1904 C.ar    1  UNL1       -0.0043
     10 C         142.5621  142.6100  164.2394 C.ar    1  UNL1       -0.0040
     11 C         142.1611  144.0544  164.2938 C.ar    1  UNL1       -0.0003
     12 C         142.9929  145.0904  163.5977 C.ar    1  UNL1       -0.0000
     13 C         144.2258  144.6822  162.8471 C.ar    1  UNL1       -0.0000
     14 C         144.6268  143.2377  162.7927 C.ar    1  UNL1       -0.0000
     15 C         143.7950  142.2017  163.4888 C.ar    1  UNL1       -0.0003
     16 C         140.2232  141.3688  162.8293 C.ar    1  UNL1       -0.0002
     17 C         139.2257  142.4636  162.5913 C.ar    1  UNL1        0.0013
     18 C         138.8881  142.8791  161.1902 C.ar    1  UNL1        0.0145
     19 C         139.5479  142.1998  160.0269 C.ar    1  UNL1        0.0479
     20 C         140.5453  141.1051  160.2648 C.ar    1  UNL1        0.0145
     21 C         140.8829  140.6895  161.6660 C.ar    1  UNL1        0.0013
     22 N         139.2102  142.6153  158.6256 N.pl3   1  UNL1       -0.3046
     23 C         138.0929  141.9362  157.8906 C.3     1  UNL1        0.1081
     24 C         137.7553  142.3517  156.4894 C.3     1  UNL1        0.0938
     25 N         138.5350  143.4464  155.8233 N.3     1  UNL1       -0.2711
     26 C         139.6523  144.1256  156.5583 C.3     1  UNL1        0.0938
     27 C         139.9899  143.7100  157.9595 C.3     1  UNL1        0.1081
     28 C         138.1973  143.8619  154.4221 C.3     1  UNL1        0.0577
     29 C         139.2825  143.9839  153.3938 C.3     1  UNL1        0.0173
     30 C         136.7743  144.1555  154.0492 C.3     1  UNL1        0.0173
     31 C         142.0679  141.1585  166.3368 C.3     1  UNL1        0.0289
     32 C         142.1181  142.1829  167.4313 C.3     1  UNL1        0.0364
     33 C         142.8784  141.8965  168.6923 C.3     1  UNL1        0.1375
     34 O         144.0326  142.7695  169.0869 O.3     1  UNL1       -0.3820
     35 H         144.7485  142.6709  168.4399 H       1  UNL1        0.2104
@<TRIPOS>BOND
     1     3     4    1
     2     4     5   ar
     3     5     6   ar
     4     6     7   ar
     5     7     1    1
     6     1     2    2
     7     2    31    1
     8    31    32    1
     9    32    33    1
    10    33    34    1
    11     2    10    1
    12    10    11   ar
    13    11    12   ar
    14    12    13   ar
    15    13    14   ar
    16    14    15   ar
    17     1    16    1
    18    16    17   ar
    19    17    18   ar
    20    18    19   ar
    21    19    22    1
    22    22    23    1
    23    23    24    1
    24    24    25    1
    25    25    28    1
    26    28    29    1
    27    28    30    1
    28    25    26    1
    29    26    27    1
    30    19    20   ar
    31    20    21   ar
    32     7     8   ar
    33     8     9   ar
    34     9     4   ar
    35    15    10   ar
    36    21    16   ar
    37    27    22    1
    38    34    35    1
@<TRIPOS>MOLECULE
*****
 35 38 0 0 0
SMALL
GASTEIGER

@<TRIPOS>ATOM
      1 C         140.9590  140.9369  166.4027 C.2     1  UNL1       -0.0040
      2 C         142.4033  141.1837  166.7237 C.2     1  UNL1       -0.0221
      3 C         137.1356  139.4040  170.7653 C.3     1  UNL1        0.0310
      4 C         138.0914  139.7872  169.6747 C.ar    1  UNL1       -0.0218
      5 C         138.0184  139.1066  168.3400 C.ar    1  UNL1       -0.0043
      6 C         138.9743  139.4898  167.2494 C.ar    1  UNL1       -0.0003
      7 C         140.0031  140.5537  167.4934 C.ar    1  UNL1       -0.0003
      8 C         140.0762  141.2343  168.8280 C.ar    1  UNL1       -0.0003
      9 C         139.1203  140.8511  169.9187 C.ar    1  UNL1       -0.0043
     10 C         143.3591  141.5669  165.6331 C.ar    1  UNL1       -0.0040
     11 C         143.5455  143.0108  165.2723 C.ar    1  UNL1       -0.0003
     12 C         144.5014  143.3940  164.1817 C.ar    1  UNL1       -0.0000
     13 C         145.2708  142.3333  163.4518 C.ar    1  UNL1       -0.0000
     14 C         145.0844  140.8893  163.8126 C.ar    1  UNL1       -0.0000
     15 C         144.1286  140.5060  164.9032 C.ar    1  UNL1       -0.0003
     16 C         140.4705  141.0733  164.9911 C.ar    1  UNL1       -0.0002
     17 C         139.9158  142.3823  164.5126 C.ar    1  UNL1        0.0013
     18 C         139.4274  142.5187  163.1009 C.ar    1  UNL1        0.0145
     19 C         139.4936  141.3462  162.1678 C.ar    1  UNL1        0.0479
     20 C         140.0483  140.0373  162.6462 C.ar    1  UNL1        0.0145
     21 C         140.5368  139.9008  164.0579 C.ar    1  UNL1        0.0013
     22 N         139.0051  141.4827  160.7560 N.pl3   1  UNL1       -0.3046
     23 C         138.3112  140.3329  160.0881 C.3     1  UNL1        0.1081
     24 C         137.8228  140.4694  158.6764 C.3     1  UNL1        0.0938
     25 N         138.0283  141.7558  157.9328 N.3     1  UNL1       -0.2711
     26 C         138.7222  142.9056  158.6008 C.3     1  UNL1        0.0938
     27 C         139.2106  142.7691  160.0124 C.3     1  UNL1        0.1081
     28 C         137.5398  141.8923  156.5211 C.3     1  UNL1        0.0577
     29 C         136.2828  141.1954  156.0917 C.3     1  UNL1        0.0173
     30 C         138.3084  142.7256  155.5388 C.3     1  UNL1        0.0173
     31 C         142.8918  141.0472  168.1354 C.3     1  UNL1        0.0289
     32 C         143.4212  142.2461  168.8650 C.3     1  UNL1        0.0364
     33 C         143.0735  142.4596  170.3085 C.3     1  UNL1        0.1375
     34 O         143.4570  143.7391  170.9910 O.3     1  UNL1       -0.3820
     35 H         144.4236  143.7989  171.0463 H       1  UNL1        0.2104
@<TRIPOS>BOND
     1     3     4    1
     2     4     5   ar
     3     5     6   ar
     4     6     7   ar
     5     7     1    1
     6     1     2    2
     7     2    31    1
     8    31    32    1
     9    32    33    1
    10    33    34    1
    11     2    10    1
    12    10    11   ar
    13    11    12   ar
    14    12    13   ar
    15    13    14   ar
    16    14    15   ar
    17     1    16    1
    18    16    17   ar
    19    17    18   ar
    20    18    19   ar
    21    19    22    1
    22    22    23    1
    23    23    24    1
    24    24    25    1
    25    25    28    1
    26    28    29    1
    27    28    30    1
    28    25    26    1
    29    26    27    1
    30    19    20   ar
    31    20    21   ar
    32     7     8   ar
    33     8     9   ar
    34     9     4   ar
    35    15    10   ar
    36    21    16   ar
    37    27    22    1
    38    34    35    1
@<TRIPOS>MOLECULE
*****
 35 38 0 0 0
SMALL
GASTEIGER

@<TRIPOS>ATOM
      1 C         140.3896  141.3142  159.2129 C.2     1  UNL1       -0.0040
      2 C         139.9406  141.3378  160.6439 C.2     1  UNL1       -0.0221
      3 C         140.5119  146.3946  156.0231 C.3     1  UNL1        0.0310
      4 C         140.4814  145.1245  156.8205 C.ar    1  UNL1       -0.0218
      5 C         141.6285  144.7774  157.7225 C.ar    1  UNL1       -0.0043
      6 C         141.5979  143.5073  158.5199 C.ar    1  UNL1       -0.0003
      7 C         140.4202  142.5843  158.4154 C.ar    1  UNL1       -0.0003
      8 C         139.2731  142.9314  157.5135 C.ar    1  UNL1       -0.0003
      9 C         139.3036  144.2015  156.7160 C.ar    1  UNL1       -0.0043
     10 C         139.9101  140.0677  161.4414 C.ar    1  UNL1       -0.0040
     11 C         138.7124  139.1673  161.3722 C.ar    1  UNL1       -0.0003
     12 C         138.6818  137.8972  162.1696 C.ar    1  UNL1       -0.0000
     13 C         139.8489  137.5275  163.0363 C.ar    1  UNL1       -0.0000
     14 C         141.0466  138.4279  163.1056 C.ar    1  UNL1       -0.0000
     15 C         141.0772  139.6980  162.3081 C.ar    1  UNL1       -0.0003
     16 C         140.8080  140.0206  158.5794 C.ar    1  UNL1       -0.0002
     17 C         139.8057  139.1940  157.8296 C.ar    1  UNL1        0.0013
     18 C         140.2240  137.9003  157.1960 C.ar    1  UNL1        0.0145
     19 C         141.6447  137.4332  157.3122 C.ar    1  UNL1        0.0479
     20 C         142.6470  138.2598  158.0620 C.ar    1  UNL1        0.0145
     21 C         142.2287  139.5535  158.6956 C.ar    1  UNL1        0.0013
     22 N         142.0631  136.1395  156.6786 N.pl3   1  UNL1       -0.3046
     23 C         143.2552  135.3973  157.2057 C.3     1  UNL1        0.1081
     24 C         143.6735  134.1037  156.5721 C.3     1  UNL1        0.0938
     25 N         142.8997  133.5523  155.4114 N.3     1  UNL1       -0.2711
     26 C         141.7075  134.2945  154.8844 C.3     1  UNL1        0.0938
     27 C         141.2892  135.5881  155.5180 C.3     1  UNL1        0.1081
     28 C         143.3180  132.2585  154.7779 C.3     1  UNL1        0.0577
     29 C         144.2693  131.3461  155.4936 C.3     1  UNL1        0.0173
     30 C         142.7850  131.8774  153.4285 C.3     1  UNL1        0.0173
     31 C         139.5222  142.6315  161.2775 C.3     1  UNL1        0.0289
     32 C         138.0855  142.8565  161.6449 C.3     1  UNL1        0.0364
     33 C         137.5830  142.4417  162.9961 C.3     1  UNL1        0.1375
     34 O         136.5986  141.3165  163.1173 O.3     1  UNL1       -0.3820
     35 H         135.7597  141.5749  162.7044 H       1  UNL1        0.2104
@<TRIPOS>BOND
     1     3     4    1
     2     4     5   ar
     3     5     6   ar
     4     6     7   ar
     5     7     1    1
     6     1     2    2
     7     2    31    1
     8    31    32    1
     9    32    33    1
    10    33    34    1
    11     2    10    1
    12    10    11   ar
    13    11    12   ar
    14    12    13   ar
    15    13    14   ar
    16    14    15   ar
    17     1    16    1
    18    16    17   ar
    19    17    18   ar
    20    18    19   ar
    21    19    22    1
    22    22    23    1
    23    23    24    1
    24    24    25    1
    25    25    28    1
    26    28    29    1
    27    28    30    1
    28    25    26    1
    29    26    27    1
    30    19    20   ar
    31    20    21   ar
    32     7     8   ar
    33     8     9   ar
    34     9     4   ar
    35    15    10   ar
    36    21    16   ar
    37    27    22    1
    38    34    35    1
@<TRIPOS>MOLECULE
*****
 35 38 0 0 0
SMALL
GASTEIGER

@<TRIPOS>ATOM
      1 C         140.5280  141.3683  161.9452 C.2     1  UNL1       -0.0040
      2 C         140.7189  142.8386  161.7176 C.2     1  UNL1       -0.0221
      3 C         138.8925  139.3575  167.3564 C.3     1  UNL1        0.0310
      4 C         139.3014  139.8602  166.0036 C.ar    1  UNL1       -0.0218
      5 C         140.7537  140.0567  165.6840 C.ar    1  UNL1       -0.0043
      6 C         141.1625  140.5594  164.3311 C.ar    1  UNL1       -0.0003
      7 C         140.1191  140.8656  163.2980 C.ar    1  UNL1       -0.0003
      8 C         138.6668  140.6691  163.6176 C.ar    1  UNL1       -0.0003
      9 C         138.2580  140.1664  164.9704 C.ar    1  UNL1       -0.0043
     10 C         141.1277  143.3413  160.3648 C.ar    1  UNL1       -0.0040
     11 C         142.5717  143.3147  159.9598 C.ar    1  UNL1       -0.0003
     12 C         142.9806  143.8174  158.6069 C.ar    1  UNL1       -0.0000
     13 C         141.9455  144.3467  157.6592 C.ar    1  UNL1       -0.0000
     14 C         140.5014  144.3733  158.0642 C.ar    1  UNL1       -0.0000
     15 C         140.0925  143.8706  159.4170 C.ar    1  UNL1       -0.0003
     16 C         140.7461  140.4008  160.8199 C.ar    1  UNL1       -0.0002
     17 C         139.6400  140.1216  159.8458 C.ar    1  UNL1        0.0013
     18 C         139.8580  139.1540  158.7206 C.ar    1  UNL1        0.0145
     19 C         141.1821  138.4656  158.5694 C.ar    1  UNL1        0.0479
     20 C         142.2881  138.7447  159.5434 C.ar    1  UNL1        0.0145
     21 C         142.0701  139.7123  160.6687 C.ar    1  UNL1        0.0013
     22 N         141.4001  137.4980  157.4440 N.pl3   1  UNL1       -0.3046
     23 C         142.7117  136.7819  157.3141 C.3     1  UNL1        0.1081
     24 C         142.9297  135.8144  156.1888 C.3     1  UNL1        0.0938
     25 N         141.8360  135.5629  155.1935 N.3     1  UNL1       -0.2711
     26 C         140.5244  136.2789  155.3234 C.3     1  UNL1        0.0938
     27 C         140.3064  137.2465  156.4487 C.3     1  UNL1        0.1081
     28 C         142.0540  134.5953  154.0681 C.3     1  UNL1        0.0577
     29 C         142.6326  133.2396  154.3462 C.3     1  UNL1        0.0173
     30 C         141.6934  134.9834  152.6648 C.3     1  UNL1        0.0173
     31 C         140.5008  143.8062  162.8429 C.3     1  UNL1        0.0289
     32 C         139.3289  144.7419  162.8110 C.3     1  UNL1        0.0364
     33 C         137.9338  144.2004  162.9138 C.3     1  UNL1        0.1375
     34 O         137.3708  143.3624  161.8044 O.3     1  UNL1       -0.3820
     35 H         137.2760  143.9047  161.0058 H       1  UNL1        0.2104
@<TRIPOS>BOND
     1     3     4    1
     2     4     5   ar
     3     5     6   ar
     4     6     7   ar
     5     7     1    1
     6     1     2    2
     7     2    31    1
     8    31    32    1
     9    32    33    1
    10    33    34    1
    11     2    10    1
    12    10    11   ar
    13    11    12   ar
    14    12    13   ar
    15    13    14   ar
    16    14    15   ar
    17     1    16    1
    18    16    17   ar
    19    17    18   ar
    20    18    19   ar
    21    19    22    1
    22    22    23    1
    23    23    24    1
    24    24    25    1
    25    25    28    1
    26    28    29    1
    27    28    30    1
    28    25    26    1
    29    26    27    1
    30    19    20   ar
    31    20    21   ar
    32     7     8   ar
    33     8     9   ar
    34     9     4   ar
    35    15    10   ar
    36    21    16   ar
    37    27    22    1
    38    34    35    1
@<TRIPOS>MOLECULE
*****
 35 38 0 0 0
SMALL
GASTEIGER

@<TRIPOS>ATOM
      1 C         140.6027  141.7937  162.1988 C.2     1  UNL1       -0.0040
      2 C         140.7135  143.2639  161.9230 C.2     1  UNL1       -0.0221
      3 C         139.2881  139.8693  167.7277 C.3     1  UNL1        0.0310
      4 C         139.6168  140.3504  166.3455 C.ar    1  UNL1       -0.0218
      5 C         138.5224  140.5405  165.3375 C.ar    1  UNL1       -0.0043
      6 C         138.8510  141.0215  163.9553 C.ar    1  UNL1       -0.0003
      7 C         140.2741  141.3126  163.5810 C.ar    1  UNL1       -0.0003
      8 C         141.3685  141.1226  164.5890 C.ar    1  UNL1       -0.0003
      9 C         141.0399  140.6415  165.9713 C.ar    1  UNL1       -0.0043
     10 C         141.0422  143.7450  160.5407 C.ar    1  UNL1       -0.0040
     11 C         140.0045  144.4633  159.7301 C.ar    1  UNL1       -0.0003
     12 C         140.3331  144.9444  158.3479 C.ar    1  UNL1       -0.0000
     13 C         141.6994  144.7072  157.7763 C.ar    1  UNL1       -0.0000
     14 C         142.7372  143.9888  158.5869 C.ar    1  UNL1       -0.0000
     15 C         142.4086  143.5077  159.9691 C.ar    1  UNL1       -0.0003
     16 C         140.8206  140.8046  161.0925 C.ar    1  UNL1       -0.0002
     17 C         139.7470  140.5737  160.0706 C.ar    1  UNL1        0.0013
     18 C         139.9649  139.5846  158.9642 C.ar    1  UNL1        0.0145
     19 C         141.2563  138.8263  158.8796 C.ar    1  UNL1        0.0479
     20 C         142.3299  139.0571  159.9015 C.ar    1  UNL1        0.0145
     21 C         142.1120  140.0462  161.0079 C.ar    1  UNL1        0.0013
     22 N         141.4742  137.8371  157.7732 N.pl3   1  UNL1       -0.3046
     23 C         140.3875  137.5809  156.7715 C.3     1  UNL1        0.1081
     24 C         140.6054  136.5917  155.6651 C.3     1  UNL1        0.0938
     25 N         141.9099  135.8588  155.5604 N.3     1  UNL1       -0.2711
     26 C         142.9966  136.1150  156.5621 C.3     1  UNL1        0.0938
     27 C         142.7787  137.1042  157.6685 C.3     1  UNL1        0.1081
     28 C         142.1278  134.8696  154.4540 C.3     1  UNL1        0.0577
     29 C         142.6957  133.5154  154.7597 C.3     1  UNL1        0.0173
     30 C         141.7777  135.2348  153.0419 C.3     1  UNL1        0.0173
     31 C         140.4956  144.2531  163.0294 C.3     1  UNL1        0.0289
     32 C         141.6501  145.0491  163.5618 C.3     1  UNL1        0.0364
     33 C         143.0482  144.5215  163.4322 C.3     1  UNL1        0.1375
     34 O         144.0595  145.2696  162.6151 O.3     1  UNL1       -0.3820
     35 H         143.7942  145.2575  161.6822 H       1  UNL1        0.2104
@<TRIPOS>BOND
     1     3     4    1
     2     4     5   ar
     3     5     6   ar
     4     6     7   ar
     5     7     1    1
     6     1     2    2
     7     2    31    1
     8    31    32    1
     9    32    33    1
    10    33    34    1
    11     2    10    1
    12    10    11   ar
    13    11    12   ar
    14    12    13   ar
    15    13    14   ar
    16    14    15   ar
    17     1    16    1
    18    16    17   ar
    19    17    18   ar
    20    18    19   ar
    21    19    22    1
    22    22    23    1
    23    23    24    1
    24    24    25    1
    25    25    28    1
    26    28    29    1
    27    28    30    1
    28    25    26    1
    29    26    27    1
    30    19    20   ar
    31    20    21   ar
    32     7     8   ar
    33     8     9   ar
    34     9     4   ar
    35    15    10   ar
    36    21    16   ar
    37    27    22    1
    38    34    35    1
@<TRIPOS>MOLECULE
*****
 35 38 0 0 0
SMALL
GASTEIGER

@<TRIPOS>ATOM
      1 C         141.6313  141.5599  167.5050 C.2     1  UNL1       -0.0040
      2 C         141.0336  140.2104  167.7725 C.2     1  UNL1       -0.0221
      3 C         144.3651  144.5598  171.9239 C.3     1  UNL1        0.0310
      4 C         143.6816  143.8098  170.8192 C.ar    1  UNL1       -0.0218
      5 C         142.2084  143.9817  170.5956 C.ar    1  UNL1       -0.0043
      6 C         141.5250  143.2317  169.4908 C.ar    1  UNL1       -0.0003
      7 C         142.3147  142.3099  168.6097 C.ar    1  UNL1       -0.0003
      8 C         143.7879  142.1380  168.8333 C.ar    1  UNL1       -0.0003
      9 C         144.4714  142.8880  169.9381 C.ar    1  UNL1       -0.0043
     10 C         140.3502  139.4605  166.6677 C.ar    1  UNL1       -0.0040
     11 C         141.1614  138.6713  165.6833 C.ar    1  UNL1       -0.0003
     12 C         140.4779  137.9213  164.5786 C.ar    1  UNL1       -0.0000
     13 C         138.9833  137.9606  164.4582 C.ar    1  UNL1       -0.0000
     14 C         138.1721  138.7498  165.4427 C.ar    1  UNL1       -0.0000
     15 C         138.8555  139.4997  166.5474 C.ar    1  UNL1       -0.0003
     16 C         141.5455  142.1595  166.1327 C.ar    1  UNL1       -0.0002
     17 C         142.6719  141.9711  165.1601 C.ar    1  UNL1        0.0013
     18 C         142.5861  142.5706  163.7879 C.ar    1  UNL1        0.0145
     19 C         141.3740  143.3586  163.3881 C.ar    1  UNL1        0.0479
     20 C         140.2476  143.5470  164.3606 C.ar    1  UNL1        0.0145
     21 C         140.3334  142.9475  165.7329 C.ar    1  UNL1        0.0013
     22 N         141.2882  143.9581  162.0157 N.pl3   1  UNL1       -0.3046
     23 C         142.1117  143.3920  160.8972 C.3     1  UNL1        0.1081
     24 C         142.0259  143.9915  159.5249 C.3     1  UNL1        0.0938
     25 N         141.1166  145.1573  159.2712 N.3     1  UNL1       -0.2711
     26 C         140.2931  145.7234  160.3898 C.3     1  UNL1        0.0938
     27 C         140.3789  145.1238  161.7621 C.3     1  UNL1        0.1081
     28 C         141.0309  145.7568  157.8989 C.3     1  UNL1        0.0577
     29 C         139.7408  146.3542  157.4207 C.3     1  UNL1        0.0173
     30 C         142.2353  145.7589  157.0048 C.3     1  UNL1        0.0173
     31 C         141.1194  139.6108  169.1448 C.3     1  UNL1        0.0289
     32 C         140.1406  140.0208  170.2049 C.3     1  UNL1        0.0364
     33 C         140.6317  140.6382  171.4808 C.3     1  UNL1        0.1375
     34 O         142.0937  140.6078  171.8146 O.3     1  UNL1       -0.3820
     35 H         142.3731  139.6903  171.9602 H       1  UNL1        0.2104
@<TRIPOS>BOND
     1     3     4    1
     2     4     5   ar
     3     5     6   ar
     4     6     7   ar
     5     7     1    1
     6     1     2    2
     7     2    31    1
     8    31    32    1
     9    32    33    1
    10    33    34    1
    11     2    10    1
    12    10    11   ar
    13    11    12   ar
    14    12    13   ar
    15    13    14   ar
    16    14    15   ar
    17     1    16    1
    18    16    17   ar
    19    17    18   ar
    20    18    19   ar
    21    19    22    1
    22    22    23    1
    23    23    24    1
    24    24    25    1
    25    25    28    1
    26    28    29    1
    27    28    30    1
    28    25    26    1
    29    26    27    1
    30    19    20   ar
    31    20    21   ar
    32     7     8   ar
    33     8     9   ar
    34     9     4   ar
    35    15    10   ar
    36    21    16   ar
    37    27    22    1
    38    34    35    1
