@<TRIPOS>MOLECULE
*****
 30 32 0 0 0
SMALL
GASTEIGER

@<TRIPOS>ATOM
      1 C         143.2902  141.4669  161.1702 C.ar    1  UNL1        0.1366
      2 C         143.9192  141.5052  159.8090 C.ar    1  UNL1        0.0552
      3 C         143.9749  140.2608  158.9733 C.ar    1  UNL1        0.1047
      4 N         143.4015  138.9781  159.4989 N.ar    1  UNL1       -0.2119
      5 C         142.7725  138.9399  160.8601 C.ar    1  UNL1        0.2218
      6 N         142.7169  140.1844  161.6957 N.ar    1  UNL1       -0.1985
      7 N         143.2345  142.7114  162.0059 N.pl3   1  UNL1       -0.2983
      8 H         143.4254  143.5870  161.5983 H       1  UNL1        0.1536
      9 C         140.4229  143.2318  162.9139 C.3     1  UNL1        0.0323
     10 C         141.4823  142.8819  163.9166 C.ar    1  UNL1       -0.0087
     11 C         141.1358  142.7922  165.3732 C.ar    1  UNL1       -0.0030
     12 C         142.1952  142.4423  166.3759 C.ar    1  UNL1        0.0001
     13 C         143.6009  142.1821  165.9220 C.ar    1  UNL1       -0.0030
     14 C         143.9473  142.2718  164.4653 C.ar    1  UNL1       -0.0087
     15 C         145.3531  142.0116  164.0113 C.3     1  UNL1        0.0323
     16 C         142.8880  142.6217  163.4626 C.ar    1  UNL1        0.0413
     17 C         141.8487  142.3526  167.8326 C.2     1  UNL1        0.0109
     18 C         140.5667  142.9463  168.3366 C.2     1  UNL1        0.0780
     19 C         140.2201  142.8567  169.7932 C.1     1  UNL1        0.1011
     20 N         139.8736  142.7670  171.2499 N.1     1  UNL1       -0.1908
     21 N         142.1992  137.6573  161.3857 N.pl3   1  UNL1       -0.2825
     22 H         142.4645  136.7985  160.9842 H       1  UNL1        0.1551
     23 C         141.2215  137.6833  162.5230 C.ar    1  UNL1        0.0505
     24 C         139.7486  137.7387  162.2448 C.ar    1  UNL1        0.0154
     25 C         138.7709  137.7646  163.3821 C.ar    1  UNL1        0.0115
     26 C         139.2663  137.7352  164.7977 C.ar    1  UNL1        0.0685
     27 C         140.7392  137.6798  165.0759 C.ar    1  UNL1        0.0115
     28 C         141.7168  137.6539  163.9386 C.ar    1  UNL1        0.0154
     29 C         138.2887  137.7612  165.9351 C.1     1  UNL1        0.1004
     30 N         137.3110  137.7872  167.0724 N.1     1  UNL1       -0.1908
@<TRIPOS>BOND
     1     9    10    1
     2    10    11   ar
     3    11    12   ar
     4    12    17    1
     5    17    18    2
     6    18    19    1
     7    19    20    3
     8    12    13   ar
     9    13    14   ar
    10    14    15    1
    11    14    16   ar
    12    16     7    1
    13     7     1    1
    14     1     2   ar
    15     2     3   ar
    16     3     4   ar
    17     4     5   ar
    18     5    21    1
    19    21    23    1
    20    23    24   ar
    21    24    25   ar
    22    25    26   ar
    23    26    29    1
    24    29    30    3
    25    26    27   ar
    26    27    28   ar
    27     5     6   ar
    28    16    10   ar
    29     6     1   ar
    30    28    23   ar
    31     7     8    1
    32    21    22    1
@<TRIPOS>MOLECULE
*****
 30 32 0 0 0
SMALL
GASTEIGER

@<TRIPOS>ATOM
      1 C         143.3833  141.4021  161.0871 C.ar    1  UNL1        0.1366
      2 C         143.9267  141.4263  159.6892 C.ar    1  UNL1        0.0552
      3 C         143.8944  140.1832  158.8504 C.ar    1  UNL1        0.1047
      4 N         143.3186  138.9159  159.4095 N.ar    1  UNL1       -0.2119
      5 C         142.7752  138.8918  160.8074 C.ar    1  UNL1        0.2218
      6 N         142.8075  140.1349  161.6462 N.ar    1  UNL1       -0.1985
      7 N         143.4156  142.6453  161.9259 N.pl3   1  UNL1       -0.2983
      8 H         143.6774  143.5044  161.5228 H       1  UNL1        0.1536
      9 C         145.5059  141.9773  163.9716 C.3     1  UNL1        0.0323
     10 C         144.0941  142.2453  164.4018 C.ar    1  UNL1       -0.0087
     11 C         143.7275  142.1794  165.8547 C.ar    1  UNL1       -0.0030
     12 C         142.3157  142.4474  166.2850 C.ar    1  UNL1        0.0001
     13 C         141.2706  142.7814  165.2622 C.ar    1  UNL1       -0.0030
     14 C         141.6372  142.8473  163.8092 C.ar    1  UNL1       -0.0087
     15 C         140.5921  143.1813  162.7864 C.3     1  UNL1        0.0323
     16 C         143.0490  142.5793  163.3790 C.ar    1  UNL1        0.0413
     17 C         141.9492  142.3815  167.7380 C.2     1  UNL1        0.0109
     18 C         140.5959  142.8429  168.1918 C.2     1  UNL1        0.0780
     19 C         140.2293  142.7769  169.6448 C.1     1  UNL1        0.1011
     20 N         139.8627  142.7110  171.0978 N.1     1  UNL1       -0.1908
     21 N         142.1994  137.6245  161.3665 N.pl3   1  UNL1       -0.2825
     22 H         142.4591  136.7552  160.9843 H       1  UNL1        0.1551
     23 C         141.2280  137.6818  162.5080 C.ar    1  UNL1        0.0505
     24 C         139.7565  137.7860  162.2361 C.ar    1  UNL1        0.0154
     25 C         138.7850  137.8433  163.3776 C.ar    1  UNL1        0.0115
     26 C         139.2851  137.7964  164.7911 C.ar    1  UNL1        0.0685
     27 C         140.7566  137.6921  165.0630 C.ar    1  UNL1        0.0115
     28 C         141.7280  137.6348  163.9214 C.ar    1  UNL1        0.0154
     29 C         138.3137  137.8536  165.9326 C.1     1  UNL1        0.1004
     30 N         137.3423  137.9109  167.0741 N.1     1  UNL1       -0.1908
@<TRIPOS>BOND
     1     9    10    1
     2    10    11   ar
     3    11    12   ar
     4    12    17    1
     5    17    18    2
     6    18    19    1
     7    19    20    3
     8    12    13   ar
     9    13    14   ar
    10    14    15    1
    11    14    16   ar
    12    16     7    1
    13     7     1    1
    14     1     2   ar
    15     2     3   ar
    16     3     4   ar
    17     4     5   ar
    18     5    21    1
    19    21    23    1
    20    23    24   ar
    21    24    25   ar
    22    25    26   ar
    23    26    29    1
    24    29    30    3
    25    26    27   ar
    26    27    28   ar
    27     5     6   ar
    28    16    10   ar
    29     6     1   ar
    30    28    23   ar
    31     7     8    1
    32    21    22    1
@<TRIPOS>MOLECULE
*****
 30 32 0 0 0
SMALL
GASTEIGER

@<TRIPOS>ATOM
      1 C         141.5880  140.4438  167.9812 C.ar    1  UNL1        0.1366
      2 C         141.3017  140.6133  169.4439 C.ar    1  UNL1        0.0552
      3 C         139.9405  140.2890  169.9842 C.ar    1  UNL1        0.1047
      4 N         138.8655  139.7953  169.0618 N.ar    1  UNL1       -0.2119
      5 C         139.1518  139.6259  167.5992 C.ar    1  UNL1        0.2218
      6 N         140.5130  139.9502  167.0589 N.ar    1  UNL1       -0.1985
      7 N         142.9492  140.7681  167.4409 N.pl3   1  UNL1       -0.2983
      8 H         143.6504  141.1060  168.0437 H       1  UNL1        0.1536
      9 C         143.8561  138.0932  166.4298 C.3     1  UNL1        0.0323
     10 C         143.6954  139.2402  165.4766 C.ar    1  UNL1       -0.0087
     11 C         143.9882  139.0497  164.0179 C.ar    1  UNL1       -0.0030
     12 C         143.8276  140.1967  163.0647 C.ar    1  UNL1        0.0001
     13 C         143.3742  141.5342  163.5702 C.ar    1  UNL1       -0.0030
     14 C         143.0814  141.7246  165.0289 C.ar    1  UNL1       -0.0087
     15 C         142.6279  143.0621  165.5345 C.3     1  UNL1        0.0323
     16 C         143.2420  140.5776  165.9821 C.ar    1  UNL1        0.0413
     17 C         144.1204  140.0062  161.6059 C.2     1  UNL1        0.0109
     18 C         143.0549  139.4823  160.6892 C.2     1  UNL1        0.0780
     19 C         143.3477  139.2918  159.2305 C.1     1  UNL1        0.1011
     20 N         143.6404  139.1013  157.7717 N.1     1  UNL1       -0.1908
     21 N         138.0768  139.1322  166.6768 N.pl3   1  UNL1       -0.2825
     22 H         137.1906  138.8968  167.0351 H       1  UNL1        0.1551
     23 C         138.3523  138.9971  165.2085 C.ar    1  UNL1        0.0505
     24 C         138.1043  140.1562  164.2892 C.ar    1  UNL1        0.0154
     25 C         138.3797  140.0212  162.8209 C.ar    1  UNL1        0.0115
     26 C         138.9031  138.7270  162.2719 C.ar    1  UNL1        0.0685
     27 C         139.1510  137.5680  163.1912 C.ar    1  UNL1        0.0115
     28 C         138.8756  137.7030  164.6595 C.ar    1  UNL1        0.0154
     29 C         139.1785  138.5919  160.8036 C.1     1  UNL1        0.1004
     30 N         139.4539  138.4569  159.3353 N.1     1  UNL1       -0.1908
@<TRIPOS>BOND
     1     9    10    1
     2    10    11   ar
     3    11    12   ar
     4    12    17    1
     5    17    18    2
     6    18    19    1
     7    19    20    3
     8    12    13   ar
     9    13    14   ar
    10    14    15    1
    11    14    16   ar
    12    16     7    1
    13     7     1    1
    14     1     2   ar
    15     2     3   ar
    16     3     4   ar
    17     4     5   ar
    18     5    21    1
    19    21    23    1
    20    23    24   ar
    21    24    25   ar
    22    25    26   ar
    23    26    29    1
    24    29    30    3
    25    26    27   ar
    26    27    28   ar
    27     5     6   ar
    28    16    10   ar
    29     6     1   ar
    30    28    23   ar
    31     7     8    1
    32    21    22    1
@<TRIPOS>MOLECULE
*****
 30 32 0 0 0
SMALL
GASTEIGER

@<TRIPOS>ATOM
      1 C         142.0644  138.4069  161.9923 C.ar    1  UNL1        0.1366
      2 C         142.4786  137.6968  160.7376 C.ar    1  UNL1        0.0552
      3 C         142.6936  138.4735  159.4724 C.ar    1  UNL1        0.1047
      4 N         142.4943  139.9602  159.4620 N.ar    1  UNL1       -0.2119
      5 C         142.0802  140.6702  160.7167 C.ar    1  UNL1        0.2218
      6 N         141.8652  139.8935  161.9819 N.ar    1  UNL1       -0.1985
      7 N         141.8494  137.6302  163.2575 N.pl3   1  UNL1       -0.2983
      8 H         142.0511  136.6670  163.2841 H       1  UNL1        0.1536
      9 C         138.8950  137.7563  163.7636 C.3     1  UNL1        0.0323
     10 C         139.8499  138.3842  164.7351 C.ar    1  UNL1       -0.0087
     11 C         139.3275  139.0752  165.9597 C.ar    1  UNL1       -0.0030
     12 C         140.2823  139.7032  166.9313 C.ar    1  UNL1        0.0001
     13 C         141.7595  139.6402  166.6783 C.ar    1  UNL1       -0.0030
     14 C         142.2818  138.9492  165.4537 C.ar    1  UNL1       -0.0087
     15 C         143.7590  138.8862  165.2007 C.3     1  UNL1        0.0323
     16 C         141.3270  138.3212  164.4821 C.ar    1  UNL1        0.0413
     17 C         139.7599  140.3942  168.1560 C.2     1  UNL1        0.0109
     18 C         140.5178  141.5451  168.7485 C.2     1  UNL1        0.0780
     19 C         139.9955  142.2360  169.9731 C.1     1  UNL1        0.1011
     20 N         139.4732  142.9271  171.1978 N.1     1  UNL1       -0.1908
     21 N         141.8809  142.1569  160.7063 N.pl3   1  UNL1       -0.2825
     22 H         142.2459  142.6973  159.9688 H       1  UNL1        0.1551
     23 C         141.1256  142.8202  161.8197 C.ar    1  UNL1        0.0505
     24 C         141.8669  143.3986  162.9885 C.ar    1  UNL1        0.0154
     25 C         141.1116  144.0618  164.1019 C.ar    1  UNL1        0.0115
     26 C         139.6150  144.1467  164.0464 C.ar    1  UNL1        0.0685
     27 C         138.8738  143.5684  162.8777 C.ar    1  UNL1        0.0115
     28 C         139.6291  142.9051  161.7643 C.ar    1  UNL1        0.0154
     29 C         138.8597  144.8100  165.1598 C.1     1  UNL1        0.1004
     30 N         138.1044  145.4733  166.2731 N.1     1  UNL1       -0.1908
@<TRIPOS>BOND
     1     9    10    1
     2    10    11   ar
     3    11    12   ar
     4    12    17    1
     5    17    18    2
     6    18    19    1
     7    19    20    3
     8    12    13   ar
     9    13    14   ar
    10    14    15    1
    11    14    16   ar
    12    16     7    1
    13     7     1    1
    14     1     2   ar
    15     2     3   ar
    16     3     4   ar
    17     4     5   ar
    18     5    21    1
    19    21    23    1
    20    23    24   ar
    21    24    25   ar
    22    25    26   ar
    23    26    29    1
    24    29    30    3
    25    26    27   ar
    26    27    28   ar
    27     5     6   ar
    28    16    10   ar
    29     6     1   ar
    30    28    23   ar
    31     7     8    1
    32    21    22    1
@<TRIPOS>MOLECULE
*****
 30 32 0 0 0
SMALL
GASTEIGER

@<TRIPOS>ATOM
      1 C         143.5696  140.8502  161.6603 C.ar    1  UNL1        0.1366
      2 C         143.9895  141.2269  160.2704 C.ar    1  UNL1        0.0552
      3 C         143.0641  140.9832  159.1153 C.ar    1  UNL1        0.1047
      4 N         141.7187  140.3628  159.3502 N.ar    1  UNL1       -0.2119
      5 C         141.2988  139.9861  160.7400 C.ar    1  UNL1        0.2218
      6 N         142.2242  140.2298  161.8951 N.ar    1  UNL1       -0.1985
      7 N         144.4950  141.0939  162.8154 N.pl3   1  UNL1       -0.2983
      8 H         145.4697  141.0618  162.6805 H       1  UNL1        0.1536
      9 C         144.0580  143.9335  163.6790 C.3     1  UNL1        0.0323
     10 C         143.7169  142.8061  164.6078 C.ar    1  UNL1       -0.0087
     11 C         143.1572  143.0986  165.9684 C.ar    1  UNL1       -0.0030
     12 C         142.8161  141.9712  166.8972 C.ar    1  UNL1        0.0001
     13 C         143.0346  140.5515  166.4655 C.ar    1  UNL1       -0.0030
     14 C         143.5942  140.2590  165.1049 C.ar    1  UNL1       -0.0087
     15 C         143.8127  138.8392  164.6731 C.3     1  UNL1        0.0323
     16 C         143.9353  141.3864  164.1760 C.ar    1  UNL1        0.0413
     17 C         142.2564  142.2637  168.2579 C.2     1  UNL1        0.0109
     18 C         140.7740  142.3917  168.4474 C.2     1  UNL1        0.0780
     19 C         140.2143  142.6842  169.8080 C.1     1  UNL1        0.1011
     20 N         139.6545  142.9767  171.1686 N.1     1  UNL1       -0.1908
     21 N         139.9534  139.3658  160.9749 N.pl3   1  UNL1       -0.2825
     22 H         139.4007  139.0846  160.2102 H       1  UNL1        0.1551
     23 C         139.4501  139.1738  162.3748 C.ar    1  UNL1        0.0505
     24 C         138.7893  140.3106  163.0968 C.ar    1  UNL1        0.0154
     25 C         138.2860  140.1186  164.4967 C.ar    1  UNL1        0.0115
     26 C         138.4435  138.7898  165.1747 C.ar    1  UNL1        0.0685
     27 C         139.1043  137.6531  164.4528 C.ar    1  UNL1        0.0115
     28 C         139.6076  137.8451  163.0529 C.ar    1  UNL1        0.0154
     29 C         137.9403  138.5979  166.5747 C.1     1  UNL1        0.1004
     30 N         137.4370  138.4059  167.9746 N.1     1  UNL1       -0.1908
@<TRIPOS>BOND
     1     9    10    1
     2    10    11   ar
     3    11    12   ar
     4    12    17    1
     5    17    18    2
     6    18    19    1
     7    19    20    3
     8    12    13   ar
     9    13    14   ar
    10    14    15    1
    11    14    16   ar
    12    16     7    1
    13     7     1    1
    14     1     2   ar
    15     2     3   ar
    16     3     4   ar
    17     4     5   ar
    18     5    21    1
    19    21    23    1
    20    23    24   ar
    21    24    25   ar
    22    25    26   ar
    23    26    29    1
    24    29    30    3
    25    26    27   ar
    26    27    28   ar
    27     5     6   ar
    28    16    10   ar
    29     6     1   ar
    30    28    23   ar
    31     7     8    1
    32    21    22    1
@<TRIPOS>MOLECULE
*****
 30 32 0 0 0
SMALL
GASTEIGER

@<TRIPOS>ATOM
      1 C         141.8472  138.2888  161.9612 C.ar    1  UNL1        0.1366
      2 C         142.6380  137.7100  160.8255 C.ar    1  UNL1        0.0552
      3 C         142.7002  138.4302  159.5112 C.ar    1  UNL1        0.1047
      4 N         141.9716  139.7293  159.3326 N.ar    1  UNL1       -0.2119
      5 C         141.1809  140.3080  160.4682 C.ar    1  UNL1        0.2218
      6 N         141.1187  139.5878  161.7825 N.ar    1  UNL1       -0.1985
      7 N         141.7850  137.5686  163.2755 N.pl3   1  UNL1       -0.2983
      8 H         141.9847  136.6056  163.3190 H       1  UNL1        0.1536
      9 C         143.9312  138.8004  164.9715 C.3     1  UNL1        0.0323
     10 C         142.4915  138.9316  165.3715 C.ar    1  UNL1       -0.0087
     11 C         142.1249  139.6787  166.6194 C.ar    1  UNL1       -0.0030
     12 C         140.6852  139.8099  167.0194 C.ar    1  UNL1        0.0001
     13 C         139.6121  139.1940  166.1714 C.ar    1  UNL1       -0.0030
     14 C         139.9787  138.4469  164.9235 C.ar    1  UNL1       -0.0087
     15 C         138.9055  137.8310  164.0755 C.3     1  UNL1        0.0323
     16 C         141.4184  138.3157  164.5235 C.ar    1  UNL1        0.0413
     17 C         140.3186  140.5570  168.2674 C.2     1  UNL1        0.0109
     18 C         141.2422  140.5419  169.4492 C.2     1  UNL1        0.0780
     19 C         140.8757  141.2890  170.6972 C.1     1  UNL1        0.1011
     20 N         140.5091  142.0361  171.9452 N.1     1  UNL1       -0.1908
     21 N         140.4523  141.6070  160.2896 N.pl3   1  UNL1       -0.2825
     22 H         140.2800  141.9544  159.3847 H       1  UNL1        0.1551
     23 C         139.9863  142.3767  161.4898 C.ar    1  UNL1        0.0505
     24 C         138.6903  142.0177  162.1542 C.ar    1  UNL1        0.0154
     25 C         138.2243  142.7874  163.3543 C.ar    1  UNL1        0.0115
     26 C         139.0543  143.9161  163.8901 C.ar    1  UNL1        0.0685
     27 C         140.3503  144.2751  163.2257 C.ar    1  UNL1        0.0115
     28 C         140.8163  143.5054  162.0255 C.ar    1  UNL1        0.0154
     29 C         138.5883  144.6858  165.0903 C.1     1  UNL1        0.1004
     30 N         138.1224  145.4555  166.2904 N.1     1  UNL1       -0.1908
@<TRIPOS>BOND
     1     9    10    1
     2    10    11   ar
     3    11    12   ar
     4    12    17    1
     5    17    18    2
     6    18    19    1
     7    19    20    3
     8    12    13   ar
     9    13    14   ar
    10    14    15    1
    11    14    16   ar
    12    16     7    1
    13     7     1    1
    14     1     2   ar
    15     2     3   ar
    16     3     4   ar
    17     4     5   ar
    18     5    21    1
    19    21    23    1
    20    23    24   ar
    21    24    25   ar
    22    25    26   ar
    23    26    29    1
    24    29    30    3
    25    26    27   ar
    26    27    28   ar
    27     5     6   ar
    28    16    10   ar
    29     6     1   ar
    30    28    23   ar
    31     7     8    1
    32    21    22    1
@<TRIPOS>MOLECULE
*****
 30 32 0 0 0
SMALL
GASTEIGER

@<TRIPOS>ATOM
      1 C         143.8817  140.2453  160.8467 C.ar    1  UNL1        0.1366
      2 C         143.8677  139.7817  159.4201 C.ar    1  UNL1        0.0552
      3 C         143.4527  140.7241  158.3294 C.ar    1  UNL1        0.1047
      4 N         143.0515  142.1299  158.6652 N.ar    1  UNL1       -0.2119
      5 C         143.0655  142.5934  160.0917 C.ar    1  UNL1        0.2218
      6 N         143.4805  141.6511  161.1825 N.ar    1  UNL1       -0.1985
      7 N         144.2967  139.3029  161.9374 N.pl3   1  UNL1       -0.2983
      8 H         145.0227  138.6568  161.7799 H       1  UNL1        0.1536
      9 C         141.8438  137.6408  162.4072 C.3     1  UNL1        0.0323
     10 C         142.3793  138.5140  163.5030 C.ar    1  UNL1       -0.0087
     11 C         141.6884  138.5561  164.8337 C.ar    1  UNL1       -0.0030
     12 C         142.2239  139.4293  165.9296 C.ar    1  UNL1        0.0001
     13 C         143.4503  140.2604  165.6947 C.ar    1  UNL1       -0.0030
     14 C         144.1412  140.2182  164.3640 C.ar    1  UNL1       -0.0087
     15 C         145.3677  141.0493  164.1291 C.3     1  UNL1        0.0323
     16 C         143.6057  139.3450  163.2682 C.ar    1  UNL1        0.0413
     17 C         141.5328  139.4714  167.2603 C.2     1  UNL1        0.0109
     18 C         140.2014  140.1495  167.3929 C.2     1  UNL1        0.0780
     19 C         139.5104  140.1916  168.7235 C.1     1  UNL1        0.1011
     20 N         138.8193  140.2337  170.0542 N.1     1  UNL1       -0.1908
     21 N         142.6643  143.9993  160.4275 N.pl3   1  UNL1       -0.2825
     22 H         143.0037  144.7501  159.8887 H       1  UNL1        0.1551
     23 C         141.7461  144.2611  161.5844 C.ar    1  UNL1        0.0505
     24 C         140.4142  144.9112  161.3525 C.ar    1  UNL1        0.0154
     25 C         139.4960  145.1730  162.5093 C.ar    1  UNL1        0.0115
     26 C         139.9096  144.7849  163.8980 C.ar    1  UNL1        0.0685
     27 C         141.2414  144.1349  164.1298 C.ar    1  UNL1        0.0115
     28 C         142.1596  143.8730  162.9730 C.ar    1  UNL1        0.0154
     29 C         138.9913  145.0467  165.0548 C.1     1  UNL1        0.1004
     30 N         138.0731  145.3086  166.2117 N.1     1  UNL1       -0.1908
@<TRIPOS>BOND
     1     9    10    1
     2    10    11   ar
     3    11    12   ar
     4    12    17    1
     5    17    18    2
     6    18    19    1
     7    19    20    3
     8    12    13   ar
     9    13    14   ar
    10    14    15    1
    11    14    16   ar
    12    16     7    1
    13     7     1    1
    14     1     2   ar
    15     2     3   ar
    16     3     4   ar
    17     4     5   ar
    18     5    21    1
    19    21    23    1
    20    23    24   ar
    21    24    25   ar
    22    25    26   ar
    23    26    29    1
    24    29    30    3
    25    26    27   ar
    26    27    28   ar
    27     5     6   ar
    28    16    10   ar
    29     6     1   ar
    30    28    23   ar
    31     7     8    1
    32    21    22    1
@<TRIPOS>MOLECULE
*****
 30 32 0 0 0
SMALL
GASTEIGER

@<TRIPOS>ATOM
      1 C         140.3078  141.8672  166.8927 C.ar    1  UNL1        0.1366
      2 C         140.2260  141.6356  168.3726 C.ar    1  UNL1        0.0552
      3 C         139.5512  140.4055  168.9030 C.ar    1  UNL1        0.1047
      4 N         138.9581  139.4069  167.9536 N.ar    1  UNL1       -0.2119
      5 C         139.0399  139.6385  166.4739 C.ar    1  UNL1        0.2218
      6 N         139.7148  140.8687  165.9435 N.ar    1  UNL1       -0.1985
      7 N         140.9826  143.0973  166.3623 N.pl3   1  UNL1       -0.2983
      8 H         141.5740  143.6250  166.9463 H       1  UNL1        0.1536
      9 C         142.8474  142.1700  164.2029 C.3     1  UNL1        0.0323
     10 C         141.6889  143.0598  163.8623 C.ar    1  UNL1       -0.0087
     11 C         141.4627  143.4859  162.4420 C.ar    1  UNL1       -0.0030
     12 C         140.3041  144.3757  162.1014 C.ar    1  UNL1        0.0001
     13 C         139.3718  144.8394  163.1810 C.ar    1  UNL1       -0.0030
     14 C         139.5980  144.4133  164.6013 C.ar    1  UNL1       -0.0087
     15 C         138.6656  144.8769  165.6810 C.3     1  UNL1        0.0323
     16 C         140.7565  143.5235  164.9419 C.ar    1  UNL1        0.0413
     17 C         140.0780  144.8019  160.6810 C.2     1  UNL1        0.0109
     18 C         141.2462  145.1549  159.8089 C.2     1  UNL1        0.0780
     19 C         141.0201  145.5810  158.3886 C.1     1  UNL1        0.1011
     20 N         140.7940  146.0071  156.9683 N.1     1  UNL1       -0.1908
     21 N         138.4469  138.6400  165.5245 N.pl3   1  UNL1       -0.2825
     22 H         138.1083  137.7797  165.8630 H       1  UNL1        0.1551
     23 C         138.3697  138.9521  164.0594 C.ar    1  UNL1        0.0505
     24 C         137.8558  140.2853  163.6027 C.ar    1  UNL1        0.0154
     25 C         137.7786  140.5975  162.1375 C.ar    1  UNL1        0.0115
     26 C         138.2154  139.5765  161.1291 C.ar    1  UNL1        0.0685
     27 C         138.7293  138.2434  161.5859 C.ar    1  UNL1        0.0115
     28 C         138.8065  137.9312  163.0510 C.ar    1  UNL1        0.0154
     29 C         138.1382  139.8886  159.6640 C.1     1  UNL1        0.1004
     30 N         138.0611  140.2008  158.1989 N.1     1  UNL1       -0.1908
@<TRIPOS>BOND
     1     9    10    1
     2    10    11   ar
     3    11    12   ar
     4    12    17    1
     5    17    18    2
     6    18    19    1
     7    19    20    3
     8    12    13   ar
     9    13    14   ar
    10    14    15    1
    11    14    16   ar
    12    16     7    1
    13     7     1    1
    14     1     2   ar
    15     2     3   ar
    16     3     4   ar
    17     4     5   ar
    18     5    21    1
    19    21    23    1
    20    23    24   ar
    21    24    25   ar
    22    25    26   ar
    23    26    29    1
    24    29    30    3
    25    26    27   ar
    26    27    28   ar
    27     5     6   ar
    28    16    10   ar
    29     6     1   ar
    30    28    23   ar
    31     7     8    1
    32    21    22    1
@<TRIPOS>MOLECULE
*****
 30 32 0 0 0
SMALL
GASTEIGER

@<TRIPOS>ATOM
      1 C         138.1514  141.4949  160.7868 C.ar    1  UNL1        0.1366
      2 C         137.9523  140.9764  159.3934 C.ar    1  UNL1        0.0552
      3 C         138.7168  141.5794  158.2524 C.ar    1  UNL1        0.1047
      4 N         139.6804  142.7009  158.5048 N.ar    1  UNL1       -0.2119
      5 C         139.8795  143.2194  159.8981 C.ar    1  UNL1        0.2218
      6 N         139.1150  142.6164  161.0392 N.ar    1  UNL1       -0.1985
      7 N         137.3869  140.8919  161.9278 N.pl3   1  UNL1       -0.2983
      8 H         136.4191  140.7327  161.8425 H       1  UNL1        0.1536
      9 C         137.7126  142.9388  164.0967 C.3     1  UNL1        0.0323
     10 C         138.2599  141.5547  164.2834 C.ar    1  UNL1       -0.0087
     11 C         138.9700  141.1941  165.5545 C.ar    1  UNL1       -0.0030
     12 C         139.5172  139.8100  165.7412 C.ar    1  UNL1        0.0001
     13 C         139.3544  138.7866  164.6568 C.ar    1  UNL1       -0.0030
     14 C         138.6443  139.1472  163.3857 C.ar    1  UNL1       -0.0087
     15 C         138.4814  138.1237  162.3012 C.3     1  UNL1        0.0323
     16 C         138.0970  140.5313  163.1990 C.ar    1  UNL1        0.0413
     17 C         140.2273  139.4495  167.0123 C.2     1  UNL1        0.0109
     18 C         141.5632  140.0567  167.3234 C.2     1  UNL1        0.0780
     19 C         142.2733  139.6962  168.5944 C.1     1  UNL1        0.1011
     20 N         142.9834  139.3356  169.8656 N.1     1  UNL1       -0.1908
     21 N         140.8431  144.3409  160.1506 N.pl3   1  UNL1       -0.2825
     22 H         140.8930  145.0977  159.5228 H       1  UNL1        0.1551
     23 C         141.7307  144.3094  161.3594 C.ar    1  UNL1        0.0505
     24 C         142.9921  143.4978  161.3426 C.ar    1  UNL1        0.0154
     25 C         143.8797  143.4662  162.5514 C.ar    1  UNL1        0.0115
     26 C         143.5059  144.2462  163.7770 C.ar    1  UNL1        0.0685
     27 C         142.2445  145.0578  163.7937 C.ar    1  UNL1        0.0115
     28 C         141.3569  145.0893  162.5849 C.ar    1  UNL1        0.0154
     29 C         144.3934  144.2147  164.9858 C.1     1  UNL1        0.1004
     30 N         145.2810  144.1831  166.1946 N.1     1  UNL1       -0.1908
@<TRIPOS>BOND
     1     9    10    1
     2    10    11   ar
     3    11    12   ar
     4    12    17    1
     5    17    18    2
     6    18    19    1
     7    19    20    3
     8    12    13   ar
     9    13    14   ar
    10    14    15    1
    11    14    16   ar
    12    16     7    1
    13     7     1    1
    14     1     2   ar
    15     2     3   ar
    16     3     4   ar
    17     4     5   ar
    18     5    21    1
    19    21    23    1
    20    23    24   ar
    21    24    25   ar
    22    25    26   ar
    23    26    29    1
    24    29    30    3
    25    26    27   ar
    26    27    28   ar
    27     5     6   ar
    28    16    10   ar
    29     6     1   ar
    30    28    23   ar
    31     7     8    1
    32    21    22    1
