@<TRIPOS>MOLECULE
*****
 34 37 0 0 0
SMALL
GASTEIGER

@<TRIPOS>ATOM
      1 C         140.8218  138.2905  160.9642 C.ar    1  UNL1        0.0729
      2 C         139.3937  138.4768  160.5450 C.ar    1  UNL1        0.1048
      3 N         139.0454  138.5689  159.0890 N.ar    1  UNL1       -0.2290
      4 C         140.1253  138.4749  158.0521 C.ar    1  UNL1        0.1318
      5 C         141.5534  138.2887  158.4713 C.ar    1  UNL1        0.0348
      6 C         141.9016  138.1965  159.9274 C.ar    1  UNL1        0.0090
      7 N         139.7770  138.5671  156.5960 N.pl3   1  UNL1       -0.2907
      8 C         139.7900  139.8149  155.7636 C.3     1  UNL1        0.0948
      9 C         139.3756  139.4467  154.3698 C.3     1  UNL1        0.0524
     10 C         139.1064  137.9713  154.3408 C.3     1  UNL1        0.1319
     11 O         138.6663  137.1787  153.1457 O.3     1  UNL1       -0.3827
     12 C         139.3544  137.4277  155.7166 C.3     1  UNL1        0.1213
     13 H         138.5794  137.7687  152.3806 H       1  UNL1        0.2104
     14 C         142.6332  138.1946  157.4345 C.ar    1  UNL1        0.0411
     15 C         143.3483  139.4331  156.9819 C.ar    1  UNL1        0.1023
     16 N         144.4282  139.3390  155.9450 N.ar    1  UNL1       -0.2224
     17 C         144.7929  138.0066  155.3608 C.ar    1  UNL1        0.1989
     18 N         144.0778  136.7681  155.8133 N.ar    1  UNL1       -0.2224
     19 C         142.9980  136.8622  156.8502 C.ar    1  UNL1        0.1023
     20 O         140.9862  136.9035  163.1550 O.2     1  UNL1       -0.2698
     21 C         141.1701  138.1983  162.4204 C.2     1  UNL1        0.2510
     22 N         141.7023  139.4009  163.1418 N.am    1  UNL1       -0.2803
     23 H         141.8230  140.2507  162.6597 H       1  UNL1        0.1552
     24 C         142.0506  139.3087  164.5980 C.ar    1  UNL1        0.0507
     25 C         141.1507  139.9293  165.6251 C.ar    1  UNL1        0.0178
     26 C         141.4991  139.8371  167.0812 C.ar    1  UNL1        0.0385
     27 C         142.7473  139.1243  167.5101 C.ar    1  UNL1        0.1469
     28 C         143.6471  138.5037  166.4829 C.ar    1  UNL1        0.0385
     29 C         143.2988  138.5959  165.0269 C.ar    1  UNL1        0.0178
     30 O         143.0956  139.0321  168.9662 O.3     1  UNL1       -0.4045
     31 C         142.4807  139.9866  169.9463 C.3     1  UNL1        0.5753
     32 F         141.8658  140.9412  170.9265 F       1  UNL1       -0.1328
     33 F         143.5191  141.0119  169.5993 F       1  UNL1       -0.1328
     34 F         141.4423  138.9613  170.2934 F       1  UNL1       -0.1328
@<TRIPOS>BOND
     1    20    21    2
     2    21    22   am
     3    22    24    1
     4    24    25   ar
     5    25    26   ar
     6    26    27   ar
     7    27    30    1
     8    30    31    1
     9    31    32    1
    10    31    33    1
    11    31    34    1
    12    27    28   ar
    13    28    29   ar
    14    21     1    1
    15     1     2   ar
    16     2     3   ar
    17     3     4   ar
    18     4     7    1
    19     7     8    1
    20     8     9    1
    21     9    10    1
    22    10    11    1
    23    10    12    1
    24     4     5   ar
    25     5    14    1
    26    14    15   ar
    27    15    16   ar
    28    16    17   ar
    29    17    18   ar
    30    18    19   ar
    31     5     6   ar
    32    29    24   ar
    33     6     1   ar
    34    12     7    1
    35    19    14   ar
    36    22    23    1
    37    11    13    1
@<TRIPOS>MOLECULE
*****
 34 37 0 0 0
SMALL
GASTEIGER

@<TRIPOS>ATOM
      1 C         142.4737  142.9469  164.0223 C.ar    1  UNL1        0.0729
      2 C         143.5495  143.2378  165.0262 C.ar    1  UNL1        0.1048
      3 N         143.5479  142.5358  166.3518 N.ar    1  UNL1       -0.2290
      4 C         142.4705  141.5430  166.6734 C.ar    1  UNL1        0.1318
      5 C         141.3947  141.2521  165.6695 C.ar    1  UNL1        0.0348
      6 C         141.3963  141.9541  164.3439 C.ar    1  UNL1        0.0090
      7 N         142.4690  140.8410  167.9991 N.pl3   1  UNL1       -0.2907
      8 C         142.6843  139.3730  168.2196 C.3     1  UNL1        0.0948
      9 C         142.6003  139.1085  169.6937 C.3     1  UNL1        0.0524
     10 C         142.3331  140.4131  170.3842 C.3     1  UNL1        0.1319
     11 O         142.1749  140.6120  171.8626 O.3     1  UNL1       -0.3827
     12 C         142.2520  141.4838  169.3369 C.3     1  UNL1        0.1213
     13 H         142.2720  139.7598  172.3157 H       1  UNL1        0.2104
     14 C         140.3173  140.2592  165.9911 C.ar    1  UNL1        0.0411
     15 C         139.5446  140.3793  167.2712 C.ar    1  UNL1        0.1023
     16 N         138.4672  139.3864  167.5928 N.ar    1  UNL1       -0.2224
     17 C         138.1625  138.2735  166.6344 C.ar    1  UNL1        0.1989
     18 N         138.9352  138.1535  165.3544 N.ar    1  UNL1       -0.2224
     19 C         140.0126  139.1463  165.0328 C.ar    1  UNL1        0.1023
     20 O         143.4538  144.7552  162.4349 O.2     1  UNL1       -0.2698
     21 C         142.4752  143.6489  162.6966 C.2     1  UNL1        0.2510
     22 N         141.4982  143.2446  161.6327 N.am    1  UNL1       -0.2803
     23 H         140.8559  142.5185  161.8045 H       1  UNL1        0.1552
     24 C         141.4997  143.9465  160.3071 C.ar    1  UNL1        0.0507
     25 C         142.5373  143.6055  159.2790 C.ar    1  UNL1        0.0178
     26 C         142.5388  144.3075  157.9534 C.ar    1  UNL1        0.0385
     27 C         141.5027  145.3505  157.6559 C.ar    1  UNL1        0.1469
     28 C         140.4650  145.6915  158.6840 C.ar    1  UNL1        0.0385
     29 C         140.4635  144.9895  160.0095 C.ar    1  UNL1        0.0178
     30 O         141.5042  146.0524  156.3302 O.3     1  UNL1       -0.4045
     31 C         140.3071  145.9598  155.4312 C.3     1  UNL1        0.5753
     32 F         139.1099  145.8672  154.5321 F       1  UNL1       -0.1328
     33 F         140.6769  144.5482  155.0841 F       1  UNL1       -0.1328
     34 F         139.9372  147.3715  155.7783 F       1  UNL1       -0.1328
@<TRIPOS>BOND
     1    20    21    2
     2    21    22   am
     3    22    24    1
     4    24    25   ar
     5    25    26   ar
     6    26    27   ar
     7    27    30    1
     8    30    31    1
     9    31    32    1
    10    31    33    1
    11    31    34    1
    12    27    28   ar
    13    28    29   ar
    14    21     1    1
    15     1     2   ar
    16     2     3   ar
    17     3     4   ar
    18     4     7    1
    19     7     8    1
    20     8     9    1
    21     9    10    1
    22    10    11    1
    23    10    12    1
    24     4     5   ar
    25     5    14    1
    26    14    15   ar
    27    15    16   ar
    28    16    17   ar
    29    17    18   ar
    30    18    19   ar
    31     5     6   ar
    32    29    24   ar
    33     6     1   ar
    34    12     7    1
    35    19    14   ar
    36    22    23    1
    37    11    13    1
@<TRIPOS>MOLECULE
*****
 34 37 0 0 0
SMALL
GASTEIGER

@<TRIPOS>ATOM
      1 C         141.1135  144.4999  161.6143 C.ar    1  UNL1        0.0729
      2 C         140.2352  145.6381  161.1864 C.ar    1  UNL1        0.1048
      3 N         139.9747  145.8773  159.7288 N.ar    1  UNL1       -0.2290
      4 C         140.5925  144.9785  158.6990 C.ar    1  UNL1        0.1318
      5 C         141.4708  143.8404  159.1269 C.ar    1  UNL1        0.0348
      6 C         141.7313  143.6011  160.5846 C.ar    1  UNL1        0.0090
      7 N         140.3319  145.2178  157.2413 N.pl3   1  UNL1       -0.2907
      8 C         141.1238  146.1186  156.3404 C.3     1  UNL1        0.0948
      9 C         140.5151  146.0560  154.9709 C.3     1  UNL1        0.0524
     10 C         139.3470  145.1163  155.0254 C.3     1  UNL1        0.1319
     11 O         138.4497  144.7577  153.8781 O.3     1  UNL1       -0.3827
     12 C         139.2339  144.5984  156.4285 C.3     1  UNL1        0.1213
     13 H         138.7391  145.2296  153.0815 H       1  UNL1        0.2104
     14 C         142.0886  142.9415  158.0972 C.ar    1  UNL1        0.0411
     15 C         143.4466  143.2573  157.5438 C.ar    1  UNL1        0.1023
     16 N         144.0644  142.3584  156.5140 N.ar    1  UNL1       -0.2224
     17 C         143.3243  141.1438  156.0377 C.ar    1  UNL1        0.1989
     18 N         141.9663  140.8281  156.5911 N.ar    1  UNL1       -0.2224
     19 C         141.3485  141.7269  157.6208 C.ar    1  UNL1        0.1023
     20 O         141.8515  145.3847  163.9430 O.2     1  UNL1       -0.2698
     21 C         141.3741  144.2606  163.0721 C.2     1  UNL1        0.2510
     22 N         141.1572  142.8973  163.6588 N.am    1  UNL1       -0.2803
     23 H         140.8438  142.1595  163.0871 H       1  UNL1        0.1552
     24 C         141.4177  142.6579  165.1165 C.ar    1  UNL1        0.0507
     25 C         140.2848  142.7046  166.0984 C.ar    1  UNL1        0.0178
     26 C         140.5454  142.4653  167.5561 C.ar    1  UNL1        0.0385
     27 C         141.9389  142.1793  168.0318 C.ar    1  UNL1        0.1469
     28 C         143.0718  142.1326  167.0499 C.ar    1  UNL1        0.0385
     29 C         142.8113  142.3719  165.5922 C.ar    1  UNL1        0.0178
     30 O         142.1995  141.9400  169.4895 O.3     1  UNL1       -0.4045
     31 C         142.9618  142.9528  170.2913 C.3     1  UNL1        0.5753
     32 F         143.7243  143.9657  171.0932 F       1  UNL1       -0.1328
     33 F         144.1779  142.0761  170.2425 F       1  UNL1       -0.1328
     34 F         141.7457  143.8295  170.3401 F       1  UNL1       -0.1328
@<TRIPOS>BOND
     1    20    21    2
     2    21    22   am
     3    22    24    1
     4    24    25   ar
     5    25    26   ar
     6    26    27   ar
     7    27    30    1
     8    30    31    1
     9    31    32    1
    10    31    33    1
    11    31    34    1
    12    27    28   ar
    13    28    29   ar
    14    21     1    1
    15     1     2   ar
    16     2     3   ar
    17     3     4   ar
    18     4     7    1
    19     7     8    1
    20     8     9    1
    21     9    10    1
    22    10    11    1
    23    10    12    1
    24     4     5   ar
    25     5    14    1
    26    14    15   ar
    27    15    16   ar
    28    16    17   ar
    29    17    18   ar
    30    18    19   ar
    31     5     6   ar
    32    29    24   ar
    33     6     1   ar
    34    12     7    1
    35    19    14   ar
    36    22    23    1
    37    11    13    1
@<TRIPOS>MOLECULE
*****
 34 37 0 0 0
SMALL
GASTEIGER

@<TRIPOS>ATOM
      1 C         141.6717  138.2051  161.6860 C.ar    1  UNL1        0.0729
      2 C         143.0372  137.6829  161.3504 C.ar    1  UNL1        0.1048
      3 N         143.4740  137.5914  159.9184 N.ar    1  UNL1       -0.2290
      4 C         142.5454  138.0222  158.8220 C.ar    1  UNL1        0.1318
      5 C         141.1799  138.5444  159.1576 C.ar    1  UNL1        0.0348
      6 C         140.7431  138.6358  160.5896 C.ar    1  UNL1        0.0090
      7 N         142.9824  137.9307  157.3899 N.pl3   1  UNL1       -0.2907
      8 C         143.0418  136.6796  156.5644 C.3     1  UNL1        0.0948
      9 C         143.5327  137.0499  155.1963 C.3     1  UNL1        0.0524
     10 C         143.7767  138.5298  155.1762 C.3     1  UNL1        0.1319
     11 O         144.2736  139.3256  154.0058 O.3     1  UNL1       -0.3827
     12 C         143.4366  139.0741  156.5319 C.3     1  UNL1        0.1213
     13 H         144.4170  138.7344  153.2503 H       1  UNL1        0.2104
     14 C         140.2513  138.9751  158.0612 C.ar    1  UNL1        0.0411
     15 C         139.9514  140.4311  157.8612 C.ar    1  UNL1        0.1023
     16 N         139.0227  140.8618  156.7647 N.ar    1  UNL1       -0.2224
     17 C         138.3941  139.8366  155.8683 C.ar    1  UNL1        0.1989
     18 N         138.6940  138.3806  156.0683 N.ar    1  UNL1       -0.2224
     19 C         139.6227  137.9498  157.1647 C.ar    1  UNL1        0.1023
     20 O         141.4658  137.1424  164.0479 O.2     1  UNL1       -0.2698
     21 C         141.2347  138.2966  163.1181 C.2     1  UNL1        0.2510
     22 N         140.5667  139.5421  163.6203 N.am    1  UNL1       -0.2803
     23 H         140.4151  140.2996  163.0100 H       1  UNL1        0.1552
     24 C         140.1298  139.6336  165.0524 C.ar    1  UNL1        0.0507
     25 C         138.8708  138.9504  165.4975 C.ar    1  UNL1        0.0178
     26 C         138.4339  139.0419  166.9295 C.ar    1  UNL1        0.0385
     27 C         139.2560  139.8166  167.9164 C.ar    1  UNL1        0.1469
     28 C         140.5150  140.4999  167.4713 C.ar    1  UNL1        0.0385
     29 C         140.9519  140.4083  166.0393 C.ar    1  UNL1        0.0178
     30 O         138.8191  139.9081  169.3485 O.3     1  UNL1       -0.4045
     31 C         139.7165  140.5459  170.3672 C.3     1  UNL1        0.5753
     32 F         140.6140  141.1838  171.3859 F       1  UNL1       -0.1328
     33 F         138.9106  141.8084  170.2868 F       1  UNL1       -0.1328
     34 F         140.5225  139.2834  170.4475 F       1  UNL1       -0.1328
@<TRIPOS>BOND
     1    20    21    2
     2    21    22   am
     3    22    24    1
     4    24    25   ar
     5    25    26   ar
     6    26    27   ar
     7    27    30    1
     8    30    31    1
     9    31    32    1
    10    31    33    1
    11    31    34    1
    12    27    28   ar
    13    28    29   ar
    14    21     1    1
    15     1     2   ar
    16     2     3   ar
    17     3     4   ar
    18     4     7    1
    19     7     8    1
    20     8     9    1
    21     9    10    1
    22    10    11    1
    23    10    12    1
    24     4     5   ar
    25     5    14    1
    26    14    15   ar
    27    15    16   ar
    28    16    17   ar
    29    17    18   ar
    30    18    19   ar
    31     5     6   ar
    32    29    24   ar
    33     6     1   ar
    34    12     7    1
    35    19    14   ar
    36    22    23    1
    37    11    13    1
@<TRIPOS>MOLECULE
*****
 34 37 0 0 0
SMALL
GASTEIGER

@<TRIPOS>ATOM
      1 C         140.0692  142.8504  163.7439 C.ar    1  UNL1        0.0729
      2 C         140.9078  143.5620  164.7639 C.ar    1  UNL1        0.1048
      3 N         141.1139  142.9558  166.1203 N.ar    1  UNL1       -0.2290
      4 C         140.4814  141.6380  166.4568 C.ar    1  UNL1        0.1318
      5 C         139.6428  140.9263  165.4369 C.ar    1  UNL1        0.0348
      6 C         139.4367  141.5326  164.0804 C.ar    1  UNL1        0.0090
      7 N         140.6875  141.0317  167.8133 N.pl3   1  UNL1       -0.2907
      8 C         139.9708  141.4225  169.0718 C.3     1  UNL1        0.0948
      9 C         140.4868  140.5607  170.1858 C.3     1  UNL1        0.0524
     10 C         141.5224  139.6372  169.6158 C.3     1  UNL1        0.1319
     11 O         142.2978  138.6040  170.3782 O.3     1  UNL1       -0.3827
     12 C         141.6464  139.9284  168.1495 C.3     1  UNL1        0.1213
     13 H         142.0280  138.6196  171.3098 H       1  UNL1        0.2104
     14 C         139.0103  139.6085  165.7734 C.ar    1  UNL1        0.0411
     15 C         139.4413  138.3645  165.0547 C.ar    1  UNL1        0.1023
     16 N         138.8087  137.0466  165.3912 N.ar    1  UNL1       -0.2224
     17 C         137.7452  136.9728  166.4464 C.ar    1  UNL1        0.1989
     18 N         137.3142  138.2169  167.1650 N.ar    1  UNL1       -0.2224
     19 C         137.9468  139.5347  166.8285 C.ar    1  UNL1        0.1023
     20 O         138.7044  144.3781  162.1459 O.2     1  UNL1       -0.2698
     21 C         139.8631  143.4566  162.3874 C.2     1  UNL1        0.2510
     22 N         140.8157  143.1413  161.2724 N.am    1  UNL1       -0.2803
     23 H         141.5762  142.5366  161.4309 H       1  UNL1        0.1552
     24 C         140.6096  143.7476  159.9159 C.ar    1  UNL1        0.0507
     25 C         141.2791  145.0428  159.5636 C.ar    1  UNL1        0.0178
     26 C         141.0730  145.6489  158.2072 C.ar    1  UNL1        0.0385
     27 C         140.1973  144.9598  157.2030 C.ar    1  UNL1        0.1469
     28 C         139.5278  143.6646  157.5552 C.ar    1  UNL1        0.0385
     29 C         139.7339  143.0585  158.9117 C.ar    1  UNL1        0.0178
     30 O         139.9912  145.5661  155.8464 O.3     1  UNL1       -0.4045
     31 C         138.6075  145.6827  155.2795 C.3     1  UNL1        0.5753
     32 F         137.2236  145.7994  154.7124 F       1  UNL1       -0.1328
     33 F         138.8255  144.4268  154.4889 F       1  UNL1       -0.1328
     34 F         138.3894  146.9386  156.0701 F       1  UNL1       -0.1328
@<TRIPOS>BOND
     1    20    21    2
     2    21    22   am
     3    22    24    1
     4    24    25   ar
     5    25    26   ar
     6    26    27   ar
     7    27    30    1
     8    30    31    1
     9    31    32    1
    10    31    33    1
    11    31    34    1
    12    27    28   ar
    13    28    29   ar
    14    21     1    1
    15     1     2   ar
    16     2     3   ar
    17     3     4   ar
    18     4     7    1
    19     7     8    1
    20     8     9    1
    21     9    10    1
    22    10    11    1
    23    10    12    1
    24     4     5   ar
    25     5    14    1
    26    14    15   ar
    27    15    16   ar
    28    16    17   ar
    29    17    18   ar
    30    18    19   ar
    31     5     6   ar
    32    29    24   ar
    33     6     1   ar
    34    12     7    1
    35    19    14   ar
    36    22    23    1
    37    11    13    1
@<TRIPOS>MOLECULE
*****
 34 37 0 0 0
SMALL
GASTEIGER

@<TRIPOS>ATOM
      1 C         139.8074  143.5966  161.6634 C.ar    1  UNL1        0.0729
      2 C         140.4606  144.9331  161.4708 C.ar    1  UNL1        0.1048
      3 N         140.6913  145.4625  160.0864 N.ar    1  UNL1       -0.2290
      4 C         140.2687  144.6555  158.8947 C.ar    1  UNL1        0.1318
      5 C         139.6155  143.3191  159.0873 C.ar    1  UNL1        0.0348
      6 C         139.3848  142.7897  160.4716 C.ar    1  UNL1        0.0090
      7 N         140.4994  145.1851  157.5103 N.pl3   1  UNL1       -0.2907
      8 C         141.7350  144.9838  156.6839 C.3     1  UNL1        0.0948
      9 C         141.5343  145.6831  155.3722 C.3     1  UNL1        0.0524
     10 C         140.1747  146.3166  155.3879 C.3     1  UNL1        0.1319
     11 O         139.5622  147.1174  154.2772 O.3     1  UNL1       -0.3827
     12 C         139.5352  146.0088  156.7093 C.3     1  UNL1        0.1213
     13 H         140.1835  147.1672  153.5339 H       1  UNL1        0.2104
     14 C         139.1929  142.5121  157.8956 C.ar    1  UNL1        0.0411
     15 C         140.1721  141.5940  157.2261 C.ar    1  UNL1        0.1023
     16 N         139.7495  140.7870  156.0343 N.ar    1  UNL1       -0.2224
     17 C         138.3478  140.8981  155.5122 C.ar    1  UNL1        0.1989
     18 N         137.3686  141.8162  156.1817 N.ar    1  UNL1       -0.2224
     19 C         137.7912  142.6232  157.3734 C.ar    1  UNL1        0.1023
     20 O         138.7531  143.8537  164.0240 O.2     1  UNL1       -0.2698
     21 C         139.5767  143.0671  163.0478 C.2     1  UNL1        0.2510
     22 N         140.1695  141.7511  163.4558 N.am    1  UNL1       -0.2803
     23 H         140.7101  141.2349  162.8151 H       1  UNL1        0.1552
     24 C         139.9388  141.2216  164.8402 C.ar    1  UNL1        0.0507
     25 C         140.7172  141.7780  165.9954 C.ar    1  UNL1        0.0178
     26 C         140.4865  141.2484  167.3797 C.ar    1  UNL1        0.0385
     27 C         139.4774  140.1625  167.6088 C.ar    1  UNL1        0.1469
     28 C         138.6990  139.6062  166.4536 C.ar    1  UNL1        0.0385
     29 C         138.9297  140.1357  165.0693 C.ar    1  UNL1        0.0178
     30 O         139.2467  139.6330  168.9932 O.3     1  UNL1       -0.4045
     31 C         139.8978  140.2988  170.1691 C.3     1  UNL1        0.5753
     32 F         140.5490  140.9647  171.3450 F       1  UNL1       -0.1328
     33 F         138.8106  141.3321  170.1860 F       1  UNL1       -0.1328
     34 F         140.9850  139.2656  170.1521 F       1  UNL1       -0.1328
@<TRIPOS>BOND
     1    20    21    2
     2    21    22   am
     3    22    24    1
     4    24    25   ar
     5    25    26   ar
     6    26    27   ar
     7    27    30    1
     8    30    31    1
     9    31    32    1
    10    31    33    1
    11    31    34    1
    12    27    28   ar
    13    28    29   ar
    14    21     1    1
    15     1     2   ar
    16     2     3   ar
    17     3     4   ar
    18     4     7    1
    19     7     8    1
    20     8     9    1
    21     9    10    1
    22    10    11    1
    23    10    12    1
    24     4     5   ar
    25     5    14    1
    26    14    15   ar
    27    15    16   ar
    28    16    17   ar
    29    17    18   ar
    30    18    19   ar
    31     5     6   ar
    32    29    24   ar
    33     6     1   ar
    34    12     7    1
    35    19    14   ar
    36    22    23    1
    37    11    13    1
@<TRIPOS>MOLECULE
*****
 34 37 0 0 0
SMALL
GASTEIGER

@<TRIPOS>ATOM
      1 C         139.0643  140.6497  161.1671 C.ar    1  UNL1        0.0729
      2 C         138.0075  139.9069  160.4047 C.ar    1  UNL1        0.1048
      3 N         137.7375  140.2496  158.9696 N.ar    1  UNL1       -0.2290
      4 C         138.5243  141.3352  158.2969 C.ar    1  UNL1        0.1318
      5 C         139.5811  142.0780  159.0594 C.ar    1  UNL1        0.0348
      6 C         139.8511  141.7353  160.4945 C.ar    1  UNL1        0.0090
      7 N         138.2543  141.6779  156.8617 N.pl3   1  UNL1       -0.2907
      8 C         138.8588  141.0042  155.6656 C.3     1  UNL1        0.0948
      9 C         138.3105  141.6644  154.4353 C.3     1  UNL1        0.0524
     10 C         137.3672  142.7462  154.8712 C.3     1  UNL1        0.1319
     11 O         136.5943  143.6593  153.9663 O.3     1  UNL1       -0.3827
     12 C         137.3325  142.7546  156.3707 C.3     1  UNL1        0.1213
     13 H         136.7962  143.4454  153.0419 H       1  UNL1        0.2104
     14 C         140.3679  143.1636  158.3867 C.ar    1  UNL1        0.0411
     15 C         141.5804  142.8177  157.5742 C.ar    1  UNL1        0.1023
     16 N         142.3672  143.9033  156.9015 N.ar    1  UNL1       -0.2224
     17 C         141.9415  145.3348  157.0414 C.ar    1  UNL1        0.1989
     18 N         140.7291  145.6807  157.8540 N.ar    1  UNL1       -0.2224
     19 C         139.9423  144.5951  158.5266 C.ar    1  UNL1        0.1023
     20 O         140.3534  139.2609  162.9446 O.2     1  UNL1       -0.2698
     21 C         139.3343  140.3069  162.6023 C.2     1  UNL1        0.2510
     22 N         138.5853  141.0103  163.6951 N.am    1  UNL1       -0.2803
     23 H         137.9164  141.6968  163.4704 H       1  UNL1        0.1552
     24 C         138.8553  140.6675  165.1303 C.ar    1  UNL1        0.0507
     25 C         138.1613  139.4994  165.7658 C.ar    1  UNL1        0.0178
     26 C         138.4314  139.1567  167.2009 C.ar    1  UNL1        0.0385
     27 C         139.3954  139.9822  168.0005 C.ar    1  UNL1        0.1469
     28 C         140.0893  141.1503  167.3650 C.ar    1  UNL1        0.0385
     29 C         139.8193  141.4929  165.9299 C.ar    1  UNL1        0.0178
     30 O         139.6654  139.6394  169.4357 O.3     1  UNL1       -0.4045
     31 C         140.1047  140.7081  170.3922 C.3     1  UNL1        0.5753
     32 F         140.5440  141.7768  171.3487 F       1  UNL1       -0.1328
     33 F         141.4547  140.0624  170.4937 F       1  UNL1       -0.1328
     34 F         138.7546  141.3539  170.2907 F       1  UNL1       -0.1328
@<TRIPOS>BOND
     1    20    21    2
     2    21    22   am
     3    22    24    1
     4    24    25   ar
     5    25    26   ar
     6    26    27   ar
     7    27    30    1
     8    30    31    1
     9    31    32    1
    10    31    33    1
    11    31    34    1
    12    27    28   ar
    13    28    29   ar
    14    21     1    1
    15     1     2   ar
    16     2     3   ar
    17     3     4   ar
    18     4     7    1
    19     7     8    1
    20     8     9    1
    21     9    10    1
    22    10    11    1
    23    10    12    1
    24     4     5   ar
    25     5    14    1
    26    14    15   ar
    27    15    16   ar
    28    16    17   ar
    29    17    18   ar
    30    18    19   ar
    31     5     6   ar
    32    29    24   ar
    33     6     1   ar
    34    12     7    1
    35    19    14   ar
    36    22    23    1
    37    11    13    1
@<TRIPOS>MOLECULE
*****
 34 37 0 0 0
SMALL
GASTEIGER

@<TRIPOS>ATOM
      1 C         140.6363  142.8688  161.8217 C.ar    1  UNL1        0.0729
      2 C         139.7072  144.0267  161.6073 C.ar    1  UNL1        0.1048
      3 N         139.6077  144.6680  160.2549 N.ar    1  UNL1       -0.2290
      4 C         140.4372  144.1513  159.1170 C.ar    1  UNL1        0.1318
      5 C         141.3663  142.9934  159.3314 C.ar    1  UNL1        0.0348
      6 C         141.4658  142.3521  160.6837 C.ar    1  UNL1        0.0090
      7 N         140.3377  144.7926  157.7646 N.pl3   1  UNL1       -0.2907
      8 C         141.1763  145.9316  157.2651 C.3     1  UNL1        0.0948
      9 C         140.7390  146.2505  155.8661 C.3     1  UNL1        0.0524
     10 C         139.6302  145.3085  155.5010 C.3     1  UNL1        0.1319
     11 O         138.8979  145.2737  154.1924 O.3     1  UNL1       -0.3827
     12 C         139.3822  144.4075  156.6744 C.3     1  UNL1        0.1213
     13 H         139.2513  145.9606  153.6057 H       1  UNL1        0.2104
     14 C         142.1959  142.4767  158.1935 C.ar    1  UNL1        0.0411
     15 C         143.5749  143.0201  157.9634 C.ar    1  UNL1        0.1023
     16 N         144.4044  142.5034  156.8255 N.ar    1  UNL1       -0.2224
     17 C         143.8550  141.4433  155.9176 C.ar    1  UNL1        0.1989
     18 N         142.4760  140.8999  156.1477 N.ar    1  UNL1       -0.2224
     19 C         141.6464  141.4166  157.2856 C.ar    1  UNL1        0.1023
     20 O         141.9735  141.4711  163.5562 O.2     1  UNL1       -0.2698
     21 C         140.7358  142.2275  163.1741 C.2     1  UNL1        0.2510
     22 N         139.5976  142.3425  164.1443 N.am    1  UNL1       -0.2803
     23 H         138.7853  142.8389  163.8935 H       1  UNL1        0.1552
     24 C         139.6972  141.7012  165.4967 C.ar    1  UNL1        0.0507
     25 C         140.3600  142.4322  166.6264 C.ar    1  UNL1        0.0178
     26 C         140.4595  141.7908  167.9787 C.ar    1  UNL1        0.0385
     27 C         139.8962  140.4186  168.2013 C.ar    1  UNL1        0.1469
     28 C         139.2334  139.6876  167.0715 C.ar    1  UNL1        0.0385
     29 C         139.1339  140.3289  165.7192 C.ar    1  UNL1        0.0178
     30 O         139.9958  139.7773  169.5536 O.3     1  UNL1       -0.4045
     31 C         141.2648  139.8894  170.3453 C.3     1  UNL1        0.5753
     32 F         142.5340  140.0016  171.1370 F       1  UNL1       -0.1328
     33 F         141.9985  139.1355  169.2761 F       1  UNL1       -0.1328
     34 F         140.5312  140.6433  171.4146 F       1  UNL1       -0.1328
@<TRIPOS>BOND
     1    20    21    2
     2    21    22   am
     3    22    24    1
     4    24    25   ar
     5    25    26   ar
     6    26    27   ar
     7    27    30    1
     8    30    31    1
     9    31    32    1
    10    31    33    1
    11    31    34    1
    12    27    28   ar
    13    28    29   ar
    14    21     1    1
    15     1     2   ar
    16     2     3   ar
    17     3     4   ar
    18     4     7    1
    19     7     8    1
    20     8     9    1
    21     9    10    1
    22    10    11    1
    23    10    12    1
    24     4     5   ar
    25     5    14    1
    26    14    15   ar
    27    15    16   ar
    28    16    17   ar
    29    17    18   ar
    30    18    19   ar
    31     5     6   ar
    32    29    24   ar
    33     6     1   ar
    34    12     7    1
    35    19    14   ar
    36    22    23    1
    37    11    13    1
@<TRIPOS>MOLECULE
*****
 34 37 0 0 0
SMALL
GASTEIGER

@<TRIPOS>ATOM
      1 C         139.5146  142.9210  161.6301 C.ar    1  UNL1        0.0729
      2 C         139.7795  144.3561  161.2833 C.ar    1  UNL1        0.1048
      3 N         139.9412  144.7634  159.8487 N.ar    1  UNL1       -0.2290
      4 C         139.8380  143.7356  158.7611 C.ar    1  UNL1        0.1318
      5 C         139.5731  142.3005  159.1079 C.ar    1  UNL1        0.0348
      6 C         139.4114  141.8932  160.5424 C.ar    1  UNL1        0.0090
      7 N         139.9997  144.1430  157.3265 N.pl3   1  UNL1       -0.2907
      8 C         141.2980  144.4330  156.6333 C.3     1  UNL1        0.0948
      9 C         140.9923  144.8011  155.2117 C.3     1  UNL1        0.0524
     10 C         139.5050  144.7386  155.0263 C.3     1  UNL1        0.1319
     11 O         138.7617  145.0314  153.7567 O.3     1  UNL1       -0.3827
     12 C         138.8917  144.3318  156.3333 C.3     1  UNL1        0.1213
     13 H         139.3930  145.2713  153.0604 H       1  UNL1        0.2104
     14 C         139.4699  141.2728  158.0202 C.ar    1  UNL1        0.0411
     15 C         138.1228  140.8437  157.5191 C.ar    1  UNL1        0.1023
     16 N         138.0196  139.8159  156.4315 N.ar    1  UNL1       -0.2224
     17 C         139.2636  139.2172  155.8449 C.ar    1  UNL1        0.1989
     18 N         140.6107  139.6463  156.3460 N.ar    1  UNL1       -0.2224
     19 C         140.7139  140.6741  157.4337 C.ar    1  UNL1        0.1023
     20 O         138.7098  143.4517  164.0428 O.2     1  UNL1       -0.2698
     21 C         139.3528  142.5136  163.0647 C.2     1  UNL1        0.2510
     22 N         139.8342  141.1683  163.5212 N.am    1  UNL1       -0.2803
     23 H         140.2562  140.5527  162.8792 H       1  UNL1        0.1552
     24 C         139.6724  140.7610  164.9558 C.ar    1  UNL1        0.0507
     25 C         140.5850  141.3263  166.0034 C.ar    1  UNL1        0.0178
     26 C         140.4232  140.9190  167.4379 C.ar    1  UNL1        0.0385
     27 C         139.3489  139.9462  167.8248 C.ar    1  UNL1        0.1469
     28 C         138.4364  139.3808  166.7771 C.ar    1  UNL1        0.0385
     29 C         138.5982  139.7882  165.3426 C.ar    1  UNL1        0.0178
     30 O         139.1872  139.5388  169.2594 O.3     1  UNL1       -0.4045
     31 C         139.8673  140.3223  170.3427 C.3     1  UNL1        0.5753
     32 F         140.5474  141.1057  171.4261 F       1  UNL1       -0.1328
     33 F         140.9662  139.3025  170.3904 F       1  UNL1       -0.1328
     34 F         138.7684  141.3421  170.2950 F       1  UNL1       -0.1328
@<TRIPOS>BOND
     1    20    21    2
     2    21    22   am
     3    22    24    1
     4    24    25   ar
     5    25    26   ar
     6    26    27   ar
     7    27    30    1
     8    30    31    1
     9    31    32    1
    10    31    33    1
    11    31    34    1
    12    27    28   ar
    13    28    29   ar
    14    21     1    1
    15     1     2   ar
    16     2     3   ar
    17     3     4   ar
    18     4     7    1
    19     7     8    1
    20     8     9    1
    21     9    10    1
    22    10    11    1
    23    10    12    1
    24     4     5   ar
    25     5    14    1
    26    14    15   ar
    27    15    16   ar
    28    16    17   ar
    29    17    18   ar
    30    18    19   ar
    31     5     6   ar
    32    29    24   ar
    33     6     1   ar
    34    12     7    1
    35    19    14   ar
    36    22    23    1
    37    11    13    1
