@<TRIPOS>MOLECULE
*****
 33 37 0 0 0
SMALL
GASTEIGER

@<TRIPOS>ATOM
      1 N         138.5716  139.3194  165.1927 N.3     1  UNL1       -0.2704
      2 C         138.0820  140.5223  164.4421 C.3     1  UNL1        0.0722
      3 C         138.0950  140.5269  162.9422 C.3     1  UNL1        0.0191
      4 C         138.5977  139.3286  162.1929 C.3     1  UNL1        0.0226
      5 C         139.0873  138.1258  162.9434 C.3     1  UNL1        0.0191
      6 C         139.0743  138.1212  164.4433 C.3     1  UNL1        0.0722
      7 C         139.0688  138.2098  161.3118 C.3     1  UNL1        0.0232
      8 C         138.9041  138.6426  159.8850 C.3     1  UNL1        0.0922
      9 N         138.3312  140.0289  159.8843 N.pl3   1  UNL1       -0.2932
     10 C         138.1418  140.4529  161.3106 C.3     1  UNL1        0.0922
     11 C         138.0050  140.8474  158.6705 C.ar    1  UNL1        0.1317
     12 C         138.6943  142.1602  158.4437 C.ar    1  UNL1        0.0350
     13 C         138.3680  142.9788  157.2298 C.ar    1  UNL1        0.0147
     14 C         137.3525  142.4846  156.2427 C.ar    1  UNL1        0.0877
     15 C         136.6631  141.1718  156.4694 C.ar    1  UNL1        0.1105
     16 N         136.9894  140.3533  157.6834 N.ar    1  UNL1       -0.2285
     17 C         137.0262  143.3032  155.0288 C.1     1  UNL1        0.1020
     18 N         136.7000  144.1218  153.8149 N.1     1  UNL1       -0.1908
     19 C         138.5587  139.3148  166.6927 C.3     1  UNL1        0.1063
     20 C         139.7709  139.7620  167.4546 C.3     1  UNL1        0.1483
     21 O         139.7489  139.7822  168.9543 O.3     1  UNL1       -0.3786
     22 H         140.6053  140.0942  169.2860 H       1  UNL1        0.2108
     23 C         140.1120  142.6273  166.6338 C.3     1  UNL1        0.0306
     24 C         141.1757  141.6216  166.3064 C.ar    1  UNL1       -0.0238
     25 C         141.0051  140.1890  166.7168 C.ar    1  UNL1        0.0015
     26 C         142.0688  139.1833  166.3894 C.ar    1  UNL1       -0.0020
     27 C         143.3031  139.6103  165.6517 C.ar    1  UNL1        0.0060
     28 C         143.4736  141.0429  165.2413 C.ar    1  UNL1        0.0748
     29 C         142.4099  142.0486  165.5686 C.ar    1  UNL1        0.0233
     30 C         142.8526  143.3804  165.0393 C.3     1  UNL1        0.2352
     31 O         144.1899  143.1979  164.3849 O.3     1  UNL1       -0.4404
     32 C         144.5737  141.7533  164.5097 C.2     1  UNL1        0.3413
     33 O         145.8359  141.1286  163.9935 O.2     1  UNL1       -0.2449
@<TRIPOS>BOND
     1    23    24    1
     2    24    25   ar
     3    25    20    1
     4    20    21    1
     5    20    19    1
     6    19     1    1
     7     1     2    1
     8     2     3    1
     9     3     4    1
    10     4     5    1
    11     5     6    1
    12     4     7    1
    13     7     8    1
    14     8     9    1
    15     9    11    1
    16    11    12   ar
    17    12    13   ar
    18    13    14   ar
    19    14    17    1
    20    17    18    3
    21    14    15   ar
    22    15    16   ar
    23     9    10    1
    24    25    26   ar
    25    26    27   ar
    26    27    28   ar
    27    28    29   ar
    28    29    30    1
    29    30    31    1
    30    31    32    1
    31    32    33    2
    32    29    24   ar
    33     6     1    1
    34    16    11   ar
    35    32    28    1
    36    10     4    1
    37    21    22    1
@<TRIPOS>MOLECULE
*****
 33 37 0 0 0
SMALL
GASTEIGER

@<TRIPOS>ATOM
      1 N         140.0788  137.8220  164.1613 N.3     1  UNL1       -0.2704
      2 C         139.5866  137.8013  162.7446 C.3     1  UNL1        0.0722
      3 C         140.5393  138.0629  161.6159 C.3     1  UNL1        0.0191
      4 C         141.9840  138.3451  161.9039 C.3     1  UNL1        0.0226
      5 C         142.4762  138.3657  163.3207 C.3     1  UNL1        0.0191
      6 C         141.5235  138.1042  164.4494 C.3     1  UNL1        0.0722
      7 C         143.4487  138.6403  162.0368 C.3     1  UNL1        0.0232
      8 C         144.0092  138.8350  160.6590 C.3     1  UNL1        0.0922
      9 N         142.8909  138.6601  159.6747 N.pl3   1  UNL1       -0.2932
     10 C         141.6393  138.3573  160.4441 C.3     1  UNL1        0.0922
     11 C         143.0042  138.7689  158.1830 C.ar    1  UNL1        0.1317
     12 C         142.0655  137.9998  157.3014 C.ar    1  UNL1        0.0350
     13 C         142.1789  138.1086  155.8097 C.ar    1  UNL1        0.0147
     14 C         143.2310  138.9865  155.1995 C.ar    1  UNL1        0.0877
     15 C         144.1698  139.7557  156.0811 C.ar    1  UNL1        0.1105
     16 N         144.0563  139.6468  157.5729 N.ar    1  UNL1       -0.2285
     17 C         143.3444  139.0953  153.7078 C.1     1  UNL1        0.1020
     18 N         143.4578  139.2041  152.2160 N.1     1  UNL1       -0.1908
     19 C         139.1261  137.5605  165.2902 C.3     1  UNL1        0.1063
     20 C         138.2574  138.6672  165.8101 C.3     1  UNL1        0.1483
     21 O         137.3046  138.4056  166.9387 O.3     1  UNL1       -0.3786
     22 H         136.8230  139.2205  167.1507 H       1  UNL1        0.2108
     23 C         140.0242  140.7530  167.0461 C.3     1  UNL1        0.0306
     24 C         139.2248  141.0785  165.8194 C.ar    1  UNL1       -0.0238
     25 C         138.3413  140.0356  165.2013 C.ar    1  UNL1        0.0015
     26 C         137.5419  140.3611  163.9746 C.ar    1  UNL1       -0.0020
     27 C         137.6258  141.7294  163.3658 C.ar    1  UNL1        0.0060
     28 C         138.5092  142.7722  163.9839 C.ar    1  UNL1        0.0748
     29 C         139.3087  142.4468  165.2106 C.ar    1  UNL1        0.0233
     30 C         140.0869  143.6702  165.5948 C.3     1  UNL1        0.2352
     31 O         139.7685  144.7518  164.6055 O.3     1  UNL1       -0.4404
     32 C         138.7934  144.1968  163.6099 C.2     1  UNL1        0.3413
     33 O         138.2056  144.9365  162.4448 O.2     1  UNL1       -0.2449
@<TRIPOS>BOND
     1    23    24    1
     2    24    25   ar
     3    25    20    1
     4    20    21    1
     5    20    19    1
     6    19     1    1
     7     1     2    1
     8     2     3    1
     9     3     4    1
    10     4     5    1
    11     5     6    1
    12     4     7    1
    13     7     8    1
    14     8     9    1
    15     9    11    1
    16    11    12   ar
    17    12    13   ar
    18    13    14   ar
    19    14    17    1
    20    17    18    3
    21    14    15   ar
    22    15    16   ar
    23     9    10    1
    24    25    26   ar
    25    26    27   ar
    26    27    28   ar
    27    28    29   ar
    28    29    30    1
    29    30    31    1
    30    31    32    1
    31    32    33    2
    32    29    24   ar
    33     6     1    1
    34    16    11   ar
    35    32    28    1
    36    10     4    1
    37    21    22    1
@<TRIPOS>MOLECULE
*****
 33 37 0 0 0
SMALL
GASTEIGER

@<TRIPOS>ATOM
      1 N         138.5411  141.1134  164.0631 N.3     1  UNL1       -0.2704
      2 C         138.8989  140.7873  162.6434 C.3     1  UNL1        0.0722
      3 C         139.3093  141.8816  161.7032 C.3     1  UNL1        0.0191
      4 C         139.3618  143.3019  162.1826 C.3     1  UNL1        0.0226
      5 C         139.0039  143.6280  163.6023 C.3     1  UNL1        0.0191
      6 C         138.5936  142.5338  164.5426 C.3     1  UNL1        0.0722
      7 C         139.4603  144.7609  162.5170 C.3     1  UNL1        0.0232
      8 C         139.9051  145.4901  161.2838 C.3     1  UNL1        0.0922
      9 N         140.0814  144.4817  160.1873 N.pl3   1  UNL1       -0.2932
     10 C         139.7456  143.1294  160.7428 C.3     1  UNL1        0.0922
     11 C         140.5170  144.7743  158.7822 C.ar    1  UNL1        0.1317
     12 C         139.7484  144.2078  157.6253 C.ar    1  UNL1        0.0350
     13 C         140.1840  144.5004  156.2201 C.ar    1  UNL1        0.0147
     14 C         141.3883  145.3595  155.9717 C.ar    1  UNL1        0.0877
     15 C         142.1570  145.9261  157.1286 C.ar    1  UNL1        0.1105
     16 N         141.7213  145.6334  158.5338 N.ar    1  UNL1       -0.2285
     17 C         141.8239  145.6522  154.5665 C.1     1  UNL1        0.1020
     18 N         142.2596  145.9448  153.1613 N.1     1  UNL1       -0.1908
     19 C         138.1307  140.0191  165.0035 C.3     1  UNL1        0.1063
     20 C         139.1542  139.3608  165.8805 C.3     1  UNL1        0.1483
     21 O         139.7559  138.0479  165.4755 O.3     1  UNL1       -0.3786
     22 H         140.3943  137.7636  166.1482 H       1  UNL1        0.2108
     23 C         141.6245  141.0615  165.9545 C.3     1  UNL1        0.0306
     24 C         140.8111  140.8658  167.1995 C.ar    1  UNL1       -0.0238
     25 C         139.5759  140.0155  167.1625 C.ar    1  UNL1        0.0015
     26 C         138.7625  139.8198  168.4075 C.ar    1  UNL1       -0.0020
     27 C         139.1842  140.4745  169.6895 C.ar    1  UNL1        0.0060
     28 C         140.4193  141.3247  169.7266 C.ar    1  UNL1        0.0748
     29 C         141.2327  141.5204  168.4816 C.ar    1  UNL1        0.0233
     30 C         142.3939  142.4072  168.8211 C.3     1  UNL1        0.2352
     31 O         142.2981  142.7597  170.2760 O.3     1  UNL1       -0.4404
     32 C         141.0777  142.0906  170.8356 C.2     1  UNL1        0.3413
     33 O         140.5997  142.1730  172.2550 O.2     1  UNL1       -0.2449
@<TRIPOS>BOND
     1    23    24    1
     2    24    25   ar
     3    25    20    1
     4    20    21    1
     5    20    19    1
     6    19     1    1
     7     1     2    1
     8     2     3    1
     9     3     4    1
    10     4     5    1
    11     5     6    1
    12     4     7    1
    13     7     8    1
    14     8     9    1
    15     9    11    1
    16    11    12   ar
    17    12    13   ar
    18    13    14   ar
    19    14    17    1
    20    17    18    3
    21    14    15   ar
    22    15    16   ar
    23     9    10    1
    24    25    26   ar
    25    26    27   ar
    26    27    28   ar
    27    28    29   ar
    28    29    30    1
    29    30    31    1
    30    31    32    1
    31    32    33    2
    32    29    24   ar
    33     6     1    1
    34    16    11   ar
    35    32    28    1
    36    10     4    1
    37    21    22    1
@<TRIPOS>MOLECULE
*****
 33 37 0 0 0
SMALL
GASTEIGER

@<TRIPOS>ATOM
      1 N         144.9683  141.5695  163.2119 N.3     1  UNL1       -0.2704
      2 C         144.6675  141.9129  161.7831 C.3     1  UNL1        0.0722
      3 C         144.0818  140.8770  160.8700 C.3     1  UNL1        0.0191
      4 C         143.7969  139.4976  161.3858 C.3     1  UNL1        0.0226
      5 C         144.0977  139.1541  162.8146 C.3     1  UNL1        0.0191
      6 C         144.6833  140.1901  163.7277 C.3     1  UNL1        0.0722
      7 C         143.4600  138.0839  161.7574 C.3     1  UNL1        0.0232
      8 C         142.9001  137.4059  160.5420 C.3     1  UNL1        0.0922
      9 N         142.8910  138.4007  159.4193 N.pl3   1  UNL1       -0.2932
     10 C         143.4452  139.6933  159.9407 C.3     1  UNL1        0.0922
     11 C         142.4118  138.1472  158.0208 C.ar    1  UNL1        0.1317
     12 C         140.9425  138.1519  157.7190 C.ar    1  UNL1        0.0350
     13 C         140.4633  137.8984  156.3204 C.ar    1  UNL1        0.0147
     14 C         141.4534  137.6403  155.2235 C.ar    1  UNL1        0.0877
     15 C         142.9228  137.6357  155.5253 C.ar    1  UNL1        0.1105
     16 N         143.4019  137.8892  156.9239 N.ar    1  UNL1       -0.2285
     17 C         140.9742  137.3869  153.8249 C.1     1  UNL1        0.1020
     18 N         140.4949  137.1334  152.4262 N.1     1  UNL1       -0.1908
     19 C         145.5540  142.6055  164.1250 C.3     1  UNL1        0.1063
     20 C         144.6518  143.4711  164.9536 C.3     1  UNL1        0.1483
     21 O         145.1764  144.1286  166.1956 O.3     1  UNL1       -0.3786
     22 H         144.4697  144.6484  166.6095 H       1  UNL1        0.2108
     23 C         142.4704  141.8494  166.2231 C.3     1  UNL1        0.0306
     24 C         142.1343  142.8685  165.1750 C.ar    1  UNL1       -0.0238
     25 C         143.2249  143.6794  164.5403 C.ar    1  UNL1        0.0015
     26 C         142.8888  144.6985  163.4922 C.ar    1  UNL1       -0.0020
     27 C         141.4620  144.9067  163.0789 C.ar    1  UNL1        0.0060
     28 C         140.3714  144.0958  163.7136 C.ar    1  UNL1        0.0748
     29 C         140.7075  143.0767  164.7617 C.ar    1  UNL1        0.0233
     30 C         139.4290  142.4309  165.2071 C.3     1  UNL1        0.2352
     31 O         138.3027  143.0508  164.4344 O.3     1  UNL1       -0.4404
     32 C         138.8852  144.0798  163.5114 C.2     1  UNL1        0.3413
     33 O         138.1164  144.9415  162.5541 O.2     1  UNL1       -0.2449
@<TRIPOS>BOND
     1    23    24    1
     2    24    25   ar
     3    25    20    1
     4    20    21    1
     5    20    19    1
     6    19     1    1
     7     1     2    1
     8     2     3    1
     9     3     4    1
    10     4     5    1
    11     5     6    1
    12     4     7    1
    13     7     8    1
    14     8     9    1
    15     9    11    1
    16    11    12   ar
    17    12    13   ar
    18    13    14   ar
    19    14    17    1
    20    17    18    3
    21    14    15   ar
    22    15    16   ar
    23     9    10    1
    24    25    26   ar
    25    26    27   ar
    26    27    28   ar
    27    28    29   ar
    28    29    30    1
    29    30    31    1
    30    31    32    1
    31    32    33    2
    32    29    24   ar
    33     6     1    1
    34    16    11   ar
    35    32    28    1
    36    10     4    1
    37    21    22    1
@<TRIPOS>MOLECULE
*****
 33 37 0 0 0
SMALL
GASTEIGER

@<TRIPOS>ATOM
      1 N         138.3315  139.3234  164.2504 N.3     1  UNL1       -0.2704
      2 C         138.9693  138.1730  163.5296 C.3     1  UNL1        0.0722
      3 C         139.1850  138.2438  162.0469 C.3     1  UNL1        0.0191
      4 C         138.7629  139.4651  161.2851 C.3     1  UNL1        0.0226
      5 C         138.1251  140.6155  162.0059 C.3     1  UNL1        0.0191
      6 C         137.9094  140.5447  163.4886 C.3     1  UNL1        0.0722
      7 C         138.3946  140.6145  160.3944 C.3     1  UNL1        0.0232
      8 C         138.7889  140.2587  158.9915 C.3     1  UNL1        0.0922
      9 N         139.4008  138.8894  159.0152 N.pl3   1  UNL1       -0.2932
     10 C         139.3848  138.3989  160.4326 C.3     1  UNL1        0.0922
     11 C         139.9350  138.1418  157.8296 C.ar    1  UNL1        0.1317
     12 C         141.3964  137.8145  157.7455 C.ar    1  UNL1        0.0350
     13 C         141.9306  137.0669  156.5599 C.ar    1  UNL1        0.0147
     14 C         141.0034  136.6466  155.4582 C.ar    1  UNL1        0.0877
     15 C         139.5419  136.9740  155.5422 C.ar    1  UNL1        0.1105
     16 N         139.0078  137.7216  156.7279 N.ar    1  UNL1       -0.2285
     17 C         141.5376  135.8991  154.2726 C.1     1  UNL1        0.1020
     18 N         142.0718  135.1515  153.0869 N.1     1  UNL1       -0.1908
     19 C         138.1158  139.2527  165.7332 C.3     1  UNL1        0.1063
     20 C         139.2237  139.6303  166.6712 C.3     1  UNL1        0.1483
     21 O         139.0017  139.5781  168.1537 O.3     1  UNL1       -0.3786
     22 H         139.8120  139.8511  168.6118 H       1  UNL1        0.2108
     23 C         139.7259  142.5215  166.0474 C.3     1  UNL1        0.0306
     24 C         140.8047  141.5056  165.8147 C.ar    1  UNL1       -0.0238
     25 C         140.5537  140.0601  166.1266 C.ar    1  UNL1        0.0015
     26 C         141.6325  139.0443  165.8939 C.ar    1  UNL1       -0.0020
     27 C         142.9625  139.4740  165.3493 C.ar    1  UNL1        0.0060
     28 C         143.2135  140.9195  165.0375 C.ar    1  UNL1        0.0748
     29 C         142.1347  141.9354  165.2702 C.ar    1  UNL1        0.0233
     30 C         142.6694  143.2790  164.8718 C.3     1  UNL1        0.2352
     31 O         144.0788  143.0936  164.3929 O.3     1  UNL1       -0.4404
     32 C         144.4150  141.6354  164.4953 C.2     1  UNL1        0.3413
     33 O         145.7232  141.0038  164.1212 O.2     1  UNL1       -0.2449
@<TRIPOS>BOND
     1    23    24    1
     2    24    25   ar
     3    25    20    1
     4    20    21    1
     5    20    19    1
     6    19     1    1
     7     1     2    1
     8     2     3    1
     9     3     4    1
    10     4     5    1
    11     5     6    1
    12     4     7    1
    13     7     8    1
    14     8     9    1
    15     9    11    1
    16    11    12   ar
    17    12    13   ar
    18    13    14   ar
    19    14    17    1
    20    17    18    3
    21    14    15   ar
    22    15    16   ar
    23     9    10    1
    24    25    26   ar
    25    26    27   ar
    26    27    28   ar
    27    28    29   ar
    28    29    30    1
    29    30    31    1
    30    31    32    1
    31    32    33    2
    32    29    24   ar
    33     6     1    1
    34    16    11   ar
    35    32    28    1
    36    10     4    1
    37    21    22    1
@<TRIPOS>MOLECULE
*****
 33 37 0 0 0
SMALL
GASTEIGER

@<TRIPOS>ATOM
      1 N         142.3015  139.0667  165.0741 N.3     1  UNL1       -0.2704
      2 C         141.5253  138.1215  164.2057 C.3     1  UNL1        0.0722
      3 C         141.8485  138.0075  162.7454 C.3     1  UNL1        0.0191
      4 C         142.9480  138.8387  162.1535 C.3     1  UNL1        0.0226
      5 C         143.7242  139.7839  163.0219 C.3     1  UNL1        0.0191
      6 C         143.4009  139.8979  164.4822 C.3     1  UNL1        0.0722
      7 C         144.0141  139.6014  161.4243 C.3     1  UNL1        0.0232
      8 C         143.9869  139.1761  159.9861 C.3     1  UNL1        0.0922
      9 N         142.9040  138.1505  159.8265 N.pl3   1  UNL1       -0.2932
     10 C         142.2619  137.9420  161.1660 C.3     1  UNL1        0.0922
     11 C         142.5290  137.4554  158.5513 C.ar    1  UNL1        0.1317
     12 C         141.3687  137.9512  157.7401 C.ar    1  UNL1        0.0350
     13 C         140.9938  137.2561  156.4648 C.ar    1  UNL1        0.0147
     14 C         141.7790  136.0653  156.0008 C.ar    1  UNL1        0.0877
     15 C         142.9393  135.5695  156.8120 C.ar    1  UNL1        0.1105
     16 N         143.3142  136.2646  158.0872 N.ar    1  UNL1       -0.2285
     17 C         141.4040  135.3702  154.7255 C.1     1  UNL1        0.1020
     18 N         141.0290  134.6751  153.4502 N.1     1  UNL1       -0.1908
     19 C         141.9782  139.1807  166.5345 C.3     1  UNL1        0.1063
     20 C         140.9093  140.1273  166.9943 C.3     1  UNL1        0.1483
     21 O         140.4436  140.0972  168.4199 O.3     1  UNL1       -0.3786
     22 H         139.7546  140.7677  168.5491 H       1  UNL1        0.2108
     23 C         138.4356  139.3913  165.4649 C.3     1  UNL1        0.0306
     24 C         139.0694  140.7359  165.2640 C.ar    1  UNL1       -0.0238
     25 C         140.3062  141.1039  166.0287 C.ar    1  UNL1        0.0015
     26 C         140.9399  142.4485  165.8277 C.ar    1  UNL1       -0.0020
     27 C         140.3368  143.4252  164.8621 C.ar    1  UNL1        0.0060
     28 C         139.1000  143.0572  164.0974 C.ar    1  UNL1        0.0748
     29 C         138.4663  141.7125  164.2984 C.ar    1  UNL1        0.0233
     30 C         137.2601  141.6312  163.4103 C.3     1  UNL1        0.2352
     31 O         137.1484  142.9256  162.6605 O.3     1  UNL1       -0.4404
     32 C         138.2855  143.8068  163.0852 C.2     1  UNL1        0.3413
     33 O         138.5600  145.1943  162.5854 O.2     1  UNL1       -0.2449
@<TRIPOS>BOND
     1    23    24    1
     2    24    25   ar
     3    25    20    1
     4    20    21    1
     5    20    19    1
     6    19     1    1
     7     1     2    1
     8     2     3    1
     9     3     4    1
    10     4     5    1
    11     5     6    1
    12     4     7    1
    13     7     8    1
    14     8     9    1
    15     9    11    1
    16    11    12   ar
    17    12    13   ar
    18    13    14   ar
    19    14    17    1
    20    17    18    3
    21    14    15   ar
    22    15    16   ar
    23     9    10    1
    24    25    26   ar
    25    26    27   ar
    26    27    28   ar
    27    28    29   ar
    28    29    30    1
    29    30    31    1
    30    31    32    1
    31    32    33    2
    32    29    24   ar
    33     6     1    1
    34    16    11   ar
    35    32    28    1
    36    10     4    1
    37    21    22    1
@<TRIPOS>MOLECULE
*****
 33 37 0 0 0
SMALL
GASTEIGER

@<TRIPOS>ATOM
      1 N         138.2674  140.3626  163.5550 N.3     1  UNL1       -0.2704
      2 C         138.5689  141.7872  163.1954 C.3     1  UNL1        0.0722
      3 C         138.7138  142.1827  161.7557 C.3     1  UNL1        0.0191
      4 C         138.5571  141.1535  160.6758 C.3     1  UNL1        0.0226
      5 C         138.2555  139.7289  161.0355 C.3     1  UNL1        0.0191
      6 C         138.1107  139.3334  162.4751 C.3     1  UNL1        0.0722
      7 C         138.4282  140.2398  159.4932 C.3     1  UNL1        0.0232
      8 C         138.6478  141.0538  158.2524 C.3     1  UNL1        0.0922
      9 N         138.9124  142.4706  158.6683 N.pl3   1  UNL1       -0.2932
     10 C         138.8563  142.5322  160.1659 C.3     1  UNL1        0.0922
     11 C         139.1851  143.6232  157.7481 C.ar    1  UNL1        0.1317
     12 C         140.1162  144.7192  158.1743 C.ar    1  UNL1        0.0350
     13 C         140.3890  145.8719  157.2540 C.ar    1  UNL1        0.0147
     14 C         139.7305  145.9286  155.9075 C.ar    1  UNL1        0.0877
     15 C         138.7993  144.8326  155.4812 C.ar    1  UNL1        0.1105
     16 N         138.5266  143.6800  156.4015 N.ar    1  UNL1       -0.2285
     17 C         140.0032  147.0813  154.9872 C.1     1  UNL1        0.1020
     18 N         140.2759  148.2341  154.0669 N.1     1  UNL1       -0.1908
     19 C         138.1225  139.9670  164.9947 C.3     1  UNL1        0.1063
     20 C         139.3092  139.4527  165.7543 C.3     1  UNL1        0.1483
     21 O         140.1092  138.3067  165.2095 O.3     1  UNL1       -0.3786
     22 H         140.8356  138.1010  165.8186 H       1  UNL1        0.2108
     23 C         141.6937  141.2679  165.8933 C.3     1  UNL1        0.0306
     24 C         140.8883  140.9918  167.1282 C.ar    1  UNL1       -0.0238
     25 C         139.6961  140.0842  167.0588 C.ar    1  UNL1        0.0015
     26 C         138.8906  139.8082  168.2937 C.ar    1  UNL1       -0.0020
     27 C         139.2774  140.4397  169.5981 C.ar    1  UNL1        0.0060
     28 C         140.4696  141.3473  169.6676 C.ar    1  UNL1        0.0748
     29 C         141.2751  141.6234  168.4326 C.ar    1  UNL1        0.0233
     30 C         142.3910  142.5538  168.8054 C.3     1  UNL1        0.2352
     31 O         142.2753  142.8528  170.2708 O.3     1  UNL1       -0.4404
     32 C         141.0878  142.1072  170.8036 C.2     1  UNL1        0.3413
     33 O         140.6035  142.1192  172.2232 O.2     1  UNL1       -0.2449
@<TRIPOS>BOND
     1    23    24    1
     2    24    25   ar
     3    25    20    1
     4    20    21    1
     5    20    19    1
     6    19     1    1
     7     1     2    1
     8     2     3    1
     9     3     4    1
    10     4     5    1
    11     5     6    1
    12     4     7    1
    13     7     8    1
    14     8     9    1
    15     9    11    1
    16    11    12   ar
    17    12    13   ar
    18    13    14   ar
    19    14    17    1
    20    17    18    3
    21    14    15   ar
    22    15    16   ar
    23     9    10    1
    24    25    26   ar
    25    26    27   ar
    26    27    28   ar
    27    28    29   ar
    28    29    30    1
    29    30    31    1
    30    31    32    1
    31    32    33    2
    32    29    24   ar
    33     6     1    1
    34    16    11   ar
    35    32    28    1
    36    10     4    1
    37    21    22    1
@<TRIPOS>MOLECULE
*****
 33 37 0 0 0
SMALL
GASTEIGER

@<TRIPOS>ATOM
      1 N         144.5399  141.9326  162.6369 N.3     1  UNL1       -0.2704
      2 C         144.2816  140.4804  162.3642 C.3     1  UNL1        0.0722
      3 C         143.9510  140.0258  160.9735 C.3     1  UNL1        0.0191
      4 C         143.8786  141.0233  159.8556 C.3     1  UNL1        0.0226
      5 C         144.1369  142.4755  160.1284 C.3     1  UNL1        0.0191
      6 C         144.4675  142.9301  161.5191 C.3     1  UNL1        0.0722
      7 C         143.7712  141.9004  158.6435 C.3     1  UNL1        0.0232
      8 C         143.4235  141.0309  157.4716 C.3     1  UNL1        0.0922
      9 N         143.3162  139.6165  157.9595 N.pl3   1  UNL1       -0.2932
     10 C         143.5975  139.6118  159.4329 C.3     1  UNL1        0.0922
     11 C         142.9857  138.4174  157.1213 C.ar    1  UNL1        0.1317
     12 C         141.6120  137.8176  157.1789 C.ar    1  UNL1        0.0350
     13 C         141.2814  136.6184  156.3406 C.ar    1  UNL1        0.0147
     14 C         142.3245  136.0190  155.4447 C.ar    1  UNL1        0.0877
     15 C         143.6983  136.6188  155.3870 C.ar    1  UNL1        0.1105
     16 N         144.0287  137.8180  156.2254 N.ar    1  UNL1       -0.2285
     17 C         141.9940  134.8198  154.6064 C.1     1  UNL1        0.1020
     18 N         141.6634  133.6206  153.7681 N.1     1  UNL1       -0.1908
     19 C         144.8705  142.3873  164.0277 C.3     1  UNL1        0.1063
     20 C         143.7759  142.8342  164.9507 C.3     1  UNL1        0.1483
     21 O         144.1094  143.3168  166.3313 O.3     1  UNL1       -0.3786
     22 H         143.2933  143.5656  166.7927 H       1  UNL1        0.2108
     23 C         142.5113  145.2941  163.7887 C.3     1  UNL1        0.0306
     24 C         141.7155  144.0286  163.9122 C.ar    1  UNL1       -0.0238
     25 C         142.3478  142.7987  164.4932 C.ar    1  UNL1        0.0015
     26 C         141.5520  141.5332  164.6167 C.ar    1  UNL1       -0.0020
     27 C         140.1239  141.4976  164.1593 C.ar    1  UNL1        0.0060
     28 C         139.4916  142.7275  163.5783 C.ar    1  UNL1        0.0748
     29 C         140.2874  143.9930  163.4548 C.ar    1  UNL1        0.0233
     30 C         139.4020  145.0398  162.8464 C.3     1  UNL1        0.2352
     31 O         138.0590  144.4214  162.5939 O.3     1  UNL1       -0.4404
     32 C         138.1144  142.9923  163.0462 C.2     1  UNL1        0.3413
     33 O         136.9899  142.0018  162.9784 O.2     1  UNL1       -0.2449
@<TRIPOS>BOND
     1    23    24    1
     2    24    25   ar
     3    25    20    1
     4    20    21    1
     5    20    19    1
     6    19     1    1
     7     1     2    1
     8     2     3    1
     9     3     4    1
    10     4     5    1
    11     5     6    1
    12     4     7    1
    13     7     8    1
    14     8     9    1
    15     9    11    1
    16    11    12   ar
    17    12    13   ar
    18    13    14   ar
    19    14    17    1
    20    17    18    3
    21    14    15   ar
    22    15    16   ar
    23     9    10    1
    24    25    26   ar
    25    26    27   ar
    26    27    28   ar
    27    28    29   ar
    28    29    30    1
    29    30    31    1
    30    31    32    1
    31    32    33    2
    32    29    24   ar
    33     6     1    1
    34    16    11   ar
    35    32    28    1
    36    10     4    1
    37    21    22    1
@<TRIPOS>MOLECULE
*****
 33 37 0 0 0
SMALL
GASTEIGER

@<TRIPOS>ATOM
      1 N         140.4580  138.4004  164.2719 N.3     1  UNL1       -0.2704
      2 C         139.8217  138.1440  162.9379 C.3     1  UNL1        0.0722
      3 C         140.6448  138.2242  161.6866 C.3     1  UNL1        0.0191
      4 C         142.1042  138.5606  161.7691 C.3     1  UNL1        0.0226
      5 C         142.7406  138.8169  163.1030 C.3     1  UNL1        0.0191
      6 C         141.9174  138.7368  164.3544 C.3     1  UNL1        0.0722
      7 C         143.5670  138.8845  161.6952 C.3     1  UNL1        0.0232
      8 C         143.9760  138.8550  160.2522 C.3     1  UNL1        0.0922
      9 N         142.7659  138.5127  159.4344 N.pl3   1  UNL1       -0.2932
     10 C         141.6092  138.3308  160.3719 C.3     1  UNL1        0.0922
     11 C         142.7207  138.3764  157.9414 C.ar    1  UNL1        0.1317
     12 C         141.6433  137.5566  157.2955 C.ar    1  UNL1        0.0350
     13 C         141.5980  137.4203  155.8023 C.ar    1  UNL1        0.0147
     14 C         142.6301  138.1037  154.9552 C.ar    1  UNL1        0.0877
     15 C         143.7075  138.9236  155.6011 C.ar    1  UNL1        0.1105
     16 N         143.7527  139.0599  157.0942 N.ar    1  UNL1       -0.2285
     17 C         142.5848  137.9674  153.4620 C.1     1  UNL1        0.1020
     18 N         142.5395  137.8310  151.9689 N.1     1  UNL1       -0.1908
     19 C         139.6348  138.3203  165.5233 C.3     1  UNL1        0.1063
     20 C         138.8855  139.5264  166.0066 C.3     1  UNL1        0.1483
     21 O         137.7338  140.0631  165.2094 O.3     1  UNL1       -0.3786
     22 H         137.3634  140.8390  165.6585 H       1  UNL1        0.2108
     23 C         140.8561  141.7881  165.9620 C.3     1  UNL1        0.0306
     24 C         140.2731  141.3268  167.2649 C.ar    1  UNL1       -0.0238
     25 C         139.2879  140.1960  167.2872 C.ar    1  UNL1        0.0015
     26 C         138.7049  139.7348  168.5901 C.ar    1  UNL1       -0.0020
     27 C         139.1073  140.4043  169.8706 C.ar    1  UNL1        0.0060
     28 C         140.0925  141.5351  169.8483 C.ar    1  UNL1        0.0748
     29 C         140.6754  141.9963  168.5454 C.ar    1  UNL1        0.0233
     30 C         141.6175  143.1274  168.8338 C.3     1  UNL1        0.2352
     31 O         141.6168  143.3652  170.3148 O.3     1  UNL1       -0.4404
     32 C         140.6743  142.3811  170.9418 C.2     1  UNL1        0.3413
     33 O         140.3675  142.2636  172.4054 O.2     1  UNL1       -0.2449
@<TRIPOS>BOND
     1    23    24    1
     2    24    25   ar
     3    25    20    1
     4    20    21    1
     5    20    19    1
     6    19     1    1
     7     1     2    1
     8     2     3    1
     9     3     4    1
    10     4     5    1
    11     5     6    1
    12     4     7    1
    13     7     8    1
    14     8     9    1
    15     9    11    1
    16    11    12   ar
    17    12    13   ar
    18    13    14   ar
    19    14    17    1
    20    17    18    3
    21    14    15   ar
    22    15    16   ar
    23     9    10    1
    24    25    26   ar
    25    26    27   ar
    26    27    28   ar
    27    28    29   ar
    28    29    30    1
    29    30    31    1
    30    31    32    1
    31    32    33    2
    32    29    24   ar
    33     6     1    1
    34    16    11   ar
    35    32    28    1
    36    10     4    1
    37    21    22    1
