@<TRIPOS>MOLECULE
*****
 44 49 0 0 0
SMALL
GASTEIGER

@<TRIPOS>ATOM
      1 N         140.2639  138.7007  160.7482 N.3     1  UNL1       -0.2688
      2 C         141.6416  138.7849  161.3355 C.3     1  UNL1        0.0741
      3 C         142.7269  139.5145  160.6007 C.3     1  UNL1        0.0372
      4 C         142.4343  140.1600  159.2786 C.3     1  UNL1        0.0799
      5 C         141.0567  140.0758  158.6914 C.3     1  UNL1        0.0372
      6 C         139.9714  139.3461  159.4262 C.3     1  UNL1        0.0741
      7 N         143.5195  140.8896  158.5438 N.am    1  UNL1       -0.2618
      8 C         144.1667  140.4505  157.2638 C.2     1  UNL1        0.3074
      9 O         143.8423  139.2048  156.4939 O.2     1  UNL1       -0.2523
     10 N         145.1953  141.4760  156.8889 N.am    1  UNL1       -0.2635
     11 C         145.1838  142.5488  157.9372 C.3     1  UNL1        0.1192
     12 C         144.1481  142.1864  158.9599 C.3     1  UNL1        0.1191
     13 C         146.0800  141.4356  155.6782 C.3     1  UNL1        0.0819
     14 C         147.5208  141.8382  155.7886 C.3     1  UNL1        0.0520
     15 C         148.4054  141.7979  154.5779 C.3     1  UNL1        0.1439
     16 O         147.8494  141.3550  153.2570 O.3     1  UNL1       -0.3537
     17 C         146.4086  140.9525  153.1468 C.3     1  UNL1        0.1439
     18 C         145.5239  140.9928  154.3574 C.3     1  UNL1        0.0520
     19 C         143.8019  142.9813  160.1840 C.ar    1  UNL1       -0.0026
     20 C         144.7569  143.0330  161.3397 C.ar    1  UNL1       -0.0026
     21 C         144.4106  143.8279  162.5637 C.ar    1  UNL1       -0.0003
     22 C         143.1094  144.5710  162.6322 C.ar    1  UNL1       -0.0000
     23 C         142.1545  144.5192  161.4766 C.ar    1  UNL1       -0.0003
     24 C         142.5007  143.7244  160.2526 C.ar    1  UNL1       -0.0026
     25 C         139.1787  137.9711  161.4831 C.3     1  UNL1        0.1003
     26 C         137.7055  140.3904  162.4712 C.3     1  UNL1        0.0519
     27 C         138.2575  139.3968  163.4500 C.ar    1  UNL1        0.0598
     28 N         138.0729  139.6128  164.9228 N.ar    1  UNL1       -0.2160
     29 C         138.6249  138.6191  165.9016 C.ar    1  UNL1        0.2293
     30 C         139.3615  137.4095  165.4075 C.ar    1  UNL1        0.0578
     31 C         139.5461  137.1935  163.9347 C.ar    1  UNL1        0.0031
     32 C         138.9941  138.1871  162.9559 C.ar    1  UNL1        0.0077
     33 O         138.4403  138.8352  167.3745 O.3     1  UNL1       -0.4361
     34 C         139.0716  140.0200  168.0436 C.ar    1  UNL1        0.1472
     35 C         138.8588  140.2549  169.5098 C.ar    1  UNL1        0.0377
     36 C         139.4901  141.4396  170.1789 C.ar    1  UNL1        0.0076
     37 C         140.3343  142.3895  169.3819 C.ar    1  UNL1        0.0533
     38 C         140.5471  142.1546  167.9158 C.ar    1  UNL1        0.0076
     39 C         139.9158  140.9698  167.2466 C.ar    1  UNL1        0.0377
     40 C         140.9656  143.5743  170.0510 C.2     1  UNL1        0.2427
     41 N         142.4144  143.5335  170.4375 N.am    1  UNL1       -0.3253
     42 O         140.1482  144.7998  170.3337 O.2     1  UNL1       -0.2704
     43 H         142.9509  142.7291  170.2520 H       1  UNL1        0.1453
     44 H         142.8288  144.3111  170.8767 H       1  UNL1        0.1453
@<TRIPOS>BOND
     1    26    27    1
     2    27    28   ar
     3    28    29   ar
     4    29    33    1
     5    33    34    1
     6    34    35   ar
     7    35    36   ar
     8    36    37   ar
     9    37    40    1
    10    40    41   am
    11    40    42    2
    12    37    38   ar
    13    38    39   ar
    14    29    30   ar
    15    30    31   ar
    16    31    32   ar
    17    32    25    1
    18    25     1    1
    19     1     2    1
    20     2     3    1
    21     3     4    1
    22     4     7    1
    23     7     8   am
    24     8     9    2
    25     8    10   am
    26    10    13    1
    27    13    14    1
    28    14    15    1
    29    15    16    1
    30    16    17    1
    31    17    18    1
    32    10    11    1
    33    11    12    1
    34    12    19    1
    35    19    20   ar
    36    20    21   ar
    37    21    22   ar
    38    22    23   ar
    39    23    24   ar
    40     4     5    1
    41     5     6    1
    42    32    27   ar
    43     6     1    1
    44    39    34   ar
    45    12     7    1
    46    24    19   ar
    47    18    13    1
    48    41    43    1
    49    41    44    1
@<TRIPOS>MOLECULE
*****
 44 49 0 0 0
SMALL
GASTEIGER

@<TRIPOS>ATOM
      1 N         139.9528  138.3881  159.8250 N.3     1  UNL1       -0.2688
      2 C         141.3860  138.4094  160.2673 C.3     1  UNL1        0.0741
      3 C         142.4812  138.5675  159.2546 C.3     1  UNL1        0.0372
      4 C         142.1432  138.7043  157.7996 C.3     1  UNL1        0.0799
      5 C         140.7101  138.6830  157.3573 C.3     1  UNL1        0.0372
      6 C         139.6149  138.5249  158.3700 C.3     1  UNL1        0.0741
      7 N         143.2384  138.8624  156.7868 N.am    1  UNL1       -0.2618
      8 C         144.0510  140.1014  156.5532 C.2     1  UNL1        0.3074
      9 O         143.9112  141.3998  157.2912 O.2     1  UNL1       -0.2523
     10 N         145.0281  139.8141  155.4519 N.am    1  UNL1       -0.2635
     11 C         144.8193  138.3975  155.0049 C.3     1  UNL1        0.1192
     12 C         143.7132  137.8094  155.8300 C.3     1  UNL1        0.1191
     13 C         146.0368  140.7746  154.8954 C.3     1  UNL1        0.0819
     14 C         146.1406  140.9776  153.4128 C.3     1  UNL1        0.0520
     15 C         147.1493  141.9382  152.8562 C.3     1  UNL1        0.1439
     16 O         148.0542  142.6957  153.7822 O.3     1  UNL1       -0.3537
     17 C         147.9503  142.4927  155.2647 C.3     1  UNL1        0.1439
     18 C         146.9416  141.5321  155.8213 C.3     1  UNL1        0.0520
     19 C         143.1762  136.4133  155.7178 C.ar    1  UNL1       -0.0026
     20 C         142.3795  136.0107  154.5122 C.ar    1  UNL1       -0.0026
     21 C         141.8425  134.6146  154.4001 C.ar    1  UNL1       -0.0003
     22 C         142.1022  133.6211  155.4934 C.ar    1  UNL1       -0.0000
     23 C         142.8989  134.0236  156.6989 C.ar    1  UNL1       -0.0003
     24 C         143.4359  135.4196  156.8111 C.ar    1  UNL1       -0.0026
     25 C         138.8576  138.2299  160.8377 C.3     1  UNL1        0.1003
     26 C         138.9390  141.2246  160.9973 C.3     1  UNL1        0.0519
     27 C         139.0068  140.4046  162.2514 C.ar    1  UNL1        0.0598
     28 N         139.1154  141.0819  163.5854 N.ar    1  UNL1       -0.2160
     29 C         139.1832  140.2619  164.8396 C.ar    1  UNL1        0.2293
     30 C         139.1425  138.7646  164.7598 C.ar    1  UNL1        0.0578
     31 C         139.0340  138.0873  163.4259 C.ar    1  UNL1        0.0031
     32 C         138.9662  138.9073  162.1717 C.ar    1  UNL1        0.0077
     33 O         139.2917  140.9392  166.1736 O.3     1  UNL1       -0.4361
     34 C         140.2415  140.4115  167.2076 C.ar    1  UNL1        0.1472
     35 C         141.6220  139.9815  166.8081 C.ar    1  UNL1        0.0377
     36 C         142.5718  139.4537  167.8421 C.ar    1  UNL1        0.0076
     37 C         142.1412  139.3559  169.2757 C.ar    1  UNL1        0.0533
     38 C         140.7609  139.7859  169.6752 C.ar    1  UNL1        0.0076
     39 C         139.8110  140.3137  168.6411 C.ar    1  UNL1        0.0377
     40 C         143.0911  138.8282  170.3098 C.2     1  UNL1        0.2427
     41 N         143.6999  139.7609  171.3145 N.am    1  UNL1       -0.3253
     42 O         143.4321  137.3678  170.3391 O.2     1  UNL1       -0.2704
     43 H         143.4761  140.7194  171.2953 H       1  UNL1        0.1453
     44 H         144.3233  139.4145  171.9932 H       1  UNL1        0.1453
@<TRIPOS>BOND
     1    26    27    1
     2    27    28   ar
     3    28    29   ar
     4    29    33    1
     5    33    34    1
     6    34    35   ar
     7    35    36   ar
     8    36    37   ar
     9    37    40    1
    10    40    41   am
    11    40    42    2
    12    37    38   ar
    13    38    39   ar
    14    29    30   ar
    15    30    31   ar
    16    31    32   ar
    17    32    25    1
    18    25     1    1
    19     1     2    1
    20     2     3    1
    21     3     4    1
    22     4     7    1
    23     7     8   am
    24     8     9    2
    25     8    10   am
    26    10    13    1
    27    13    14    1
    28    14    15    1
    29    15    16    1
    30    16    17    1
    31    17    18    1
    32    10    11    1
    33    11    12    1
    34    12    19    1
    35    19    20   ar
    36    20    21   ar
    37    21    22   ar
    38    22    23   ar
    39    23    24   ar
    40     4     5    1
    41     5     6    1
    42    32    27   ar
    43     6     1    1
    44    39    34   ar
    45    12     7    1
    46    24    19   ar
    47    18    13    1
    48    41    43    1
    49    41    44    1
@<TRIPOS>MOLECULE
*****
 44 49 0 0 0
SMALL
GASTEIGER

@<TRIPOS>ATOM
      1 N         143.6143  141.3839  160.1343 N.3     1  UNL1       -0.2688
      2 C         144.2365  140.6062  161.2560 C.3     1  UNL1        0.0741
      3 C         143.6155  140.6321  162.6212 C.3     1  UNL1        0.0372
      4 C         142.3724  141.4356  162.8647 C.3     1  UNL1        0.0799
      5 C         141.7504  142.2132  161.7429 C.3     1  UNL1        0.0372
      6 C         142.3713  142.1873  160.3777 C.3     1  UNL1        0.0741
      7 N         141.7515  141.4614  164.2298 N.am    1  UNL1       -0.2618
      8 C         142.2908  142.1811  165.4303 C.2     1  UNL1        0.3074
      9 O         143.5459  143.0014  165.4764 O.2     1  UNL1       -0.2523
     10 N         141.3549  141.9366  166.5767 N.am    1  UNL1       -0.2635
     11 C         140.2370  141.0657  166.0847 C.3     1  UNL1        0.1192
     12 C         140.4822  140.7720  164.6343 C.3     1  UNL1        0.1191
     13 C         141.5096  142.4694  167.9703 C.3     1  UNL1        0.0819
     14 C         140.3894  143.2360  168.6087 C.3     1  UNL1        0.0520
     15 C         140.5442  143.7688  170.0023 C.3     1  UNL1        0.1439
     16 O         141.8189  143.5349  170.7575 O.3     1  UNL1       -0.3537
     17 C         142.9390  142.7683  170.1190 C.3     1  UNL1        0.1439
     18 C         142.7843  142.2355  168.7254 C.3     1  UNL1        0.0520
     19 C         139.6109  139.9358  163.7446 C.ar    1  UNL1       -0.0026
     20 C         138.6089  140.5939  162.8428 C.ar    1  UNL1       -0.0026
     21 C         137.7376  139.7577  161.9531 C.ar    1  UNL1       -0.0003
     22 C         137.8683  138.2634  161.9651 C.ar    1  UNL1       -0.0000
     23 C         138.8702  137.6054  162.8668 C.ar    1  UNL1       -0.0003
     24 C         139.7415  138.4416  163.7565 C.ar    1  UNL1       -0.0026
     25 C         144.2353  141.3581  158.7691 C.3     1  UNL1        0.1003
     26 C         145.5251  141.2654  156.0620 C.3     1  UNL1        0.0519
     27 C         144.4706  140.2624  156.4251 C.ar    1  UNL1        0.0598
     28 N         144.0609  139.2130  155.4347 N.ar    1  UNL1       -0.2160
     29 C         143.0064  138.2099  155.7977 C.ar    1  UNL1        0.2293
     30 C         142.3615  138.2562  157.1512 C.ar    1  UNL1        0.0578
     31 C         142.7711  139.3055  158.1416 C.ar    1  UNL1        0.0031
     32 C         143.8257  140.3086  157.7786 C.ar    1  UNL1        0.0077
     33 O         142.5968  137.1605  154.8072 O.3     1  UNL1       -0.4361
     34 C         142.6176  135.7122  155.1972 C.ar    1  UNL1        0.1472
     35 C         143.8433  135.1236  155.8307 C.ar    1  UNL1        0.0377
     36 C         143.8641  133.6754  156.2207 C.ar    1  UNL1        0.0076
     37 C         142.6592  132.8157  155.9772 C.ar    1  UNL1        0.0533
     38 C         141.4336  133.4043  155.3438 C.ar    1  UNL1        0.0076
     39 C         141.4128  134.8526  154.9538 C.ar    1  UNL1        0.0377
     40 C         142.6800  131.3674  156.3673 C.2     1  UNL1        0.2427
     41 N         143.2739  130.9529  157.6809 N.am    1  UNL1       -0.3253
     42 O         142.1069  130.3337  155.4437 O.2     1  UNL1       -0.2704
     43 H         143.6501  131.6314  158.2870 H       1  UNL1        0.1453
     44 H         143.2876  130.0024  157.9369 H       1  UNL1        0.1453
@<TRIPOS>BOND
     1    26    27    1
     2    27    28   ar
     3    28    29   ar
     4    29    33    1
     5    33    34    1
     6    34    35   ar
     7    35    36   ar
     8    36    37   ar
     9    37    40    1
    10    40    41   am
    11    40    42    2
    12    37    38   ar
    13    38    39   ar
    14    29    30   ar
    15    30    31   ar
    16    31    32   ar
    17    32    25    1
    18    25     1    1
    19     1     2    1
    20     2     3    1
    21     3     4    1
    22     4     7    1
    23     7     8   am
    24     8     9    2
    25     8    10   am
    26    10    13    1
    27    13    14    1
    28    14    15    1
    29    15    16    1
    30    16    17    1
    31    17    18    1
    32    10    11    1
    33    11    12    1
    34    12    19    1
    35    19    20   ar
    36    20    21   ar
    37    21    22   ar
    38    22    23   ar
    39    23    24   ar
    40     4     5    1
    41     5     6    1
    42    32    27   ar
    43     6     1    1
    44    39    34   ar
    45    12     7    1
    46    24    19   ar
    47    18    13    1
    48    41    43    1
    49    41    44    1
@<TRIPOS>MOLECULE
*****
 44 49 0 0 0
SMALL
GASTEIGER

@<TRIPOS>ATOM
      1 N         139.1776  139.3623  160.0097 N.3     1  UNL1       -0.2688
      2 C         140.5926  139.2618  160.4974 C.3     1  UNL1        0.0741
      3 C         141.7312  139.4268  159.5350 C.3     1  UNL1        0.0372
      4 C         141.4548  139.6924  158.0847 C.3     1  UNL1        0.0799
      5 C         140.0399  139.7929  157.5970 C.3     1  UNL1        0.0372
      6 C         138.9013  139.6279  158.5595 C.3     1  UNL1        0.0741
      7 N         142.5934  139.8574  157.1222 N.am    1  UNL1       -0.2618
      8 C         143.4285  141.0911  156.9476 C.2     1  UNL1        0.3074
      9 O         143.2716  142.3765  157.7047 O.2     1  UNL1       -0.2523
     10 N         144.4480  140.8139  155.8828 N.am    1  UNL1       -0.2635
     11 C         144.2430  139.4088  155.3994 C.3     1  UNL1        0.1192
     12 C         143.0968  138.8177  156.1654 C.3     1  UNL1        0.1191
     13 C         145.4897  141.7733  155.3883 C.3     1  UNL1        0.0819
     14 C         145.0921  142.9292  154.5189 C.3     1  UNL1        0.0520
     15 C         146.1337  143.8886  154.0244 C.3     1  UNL1        0.1439
     16 O         147.5728  143.6921  154.3993 O.3     1  UNL1       -0.3537
     17 C         147.9702  142.5362  155.2687 C.3     1  UNL1        0.1439
     18 C         146.9286  141.5768  155.7632 C.3     1  UNL1        0.0520
     19 C         142.5500  137.4303  156.0030 C.ar    1  UNL1       -0.0026
     20 C         141.2894  137.2078  155.2210 C.ar    1  UNL1       -0.0026
     21 C         140.7427  135.8204  155.0586 C.ar    1  UNL1       -0.0003
     22 C         141.4564  134.6557  155.6783 C.ar    1  UNL1       -0.0000
     23 C         142.7168  134.8783  156.4603 C.ar    1  UNL1       -0.0003
     24 C         143.2636  136.2655  156.6227 C.ar    1  UNL1       -0.0026
     25 C         138.0390  139.1973  160.9721 C.3     1  UNL1        0.1003
     26 C         137.4378  141.5082  162.7884 C.3     1  UNL1        0.0519
     27 C         138.0100  140.2410  163.3512 C.ar    1  UNL1        0.0598
     28 N         138.2816  140.1292  164.8222 N.ar    1  UNL1       -0.2160
     29 C         138.8539  138.8620  165.3850 C.ar    1  UNL1        0.2293
     30 C         139.1545  137.7066  164.4770 C.ar    1  UNL1        0.0578
     31 C         138.8828  137.8184  163.0060 C.ar    1  UNL1        0.0031
     32 C         138.3106  139.0856  162.4432 C.ar    1  UNL1        0.0077
     33 O         139.1255  138.7503  166.8560 O.3     1  UNL1       -0.4361
     34 C         139.6133  139.9445  167.6214 C.ar    1  UNL1        0.1472
     35 C         139.1007  140.2084  169.0062 C.ar    1  UNL1        0.0377
     36 C         139.5886  141.4027  169.7716 C.ar    1  UNL1        0.0076
     37 C         140.5891  142.3329  169.1522 C.ar    1  UNL1        0.0533
     38 C         141.1017  142.0690  167.7675 C.ar    1  UNL1        0.0076
     39 C         140.6138  140.8748  167.0021 C.ar    1  UNL1        0.0377
     40 C         141.0770  143.5272  169.9176 C.2     1  UNL1        0.2427
     41 N         142.4925  143.5741  170.4119 N.am    1  UNL1       -0.3253
     42 O         140.1494  144.6743  170.1888 O.2     1  UNL1       -0.2704
     43 H         143.1013  142.8212  170.2339 H       1  UNL1        0.1453
     44 H         142.8127  144.3579  170.9142 H       1  UNL1        0.1453
@<TRIPOS>BOND
     1    26    27    1
     2    27    28   ar
     3    28    29   ar
     4    29    33    1
     5    33    34    1
     6    34    35   ar
     7    35    36   ar
     8    36    37   ar
     9    37    40    1
    10    40    41   am
    11    40    42    2
    12    37    38   ar
    13    38    39   ar
    14    29    30   ar
    15    30    31   ar
    16    31    32   ar
    17    32    25    1
    18    25     1    1
    19     1     2    1
    20     2     3    1
    21     3     4    1
    22     4     7    1
    23     7     8   am
    24     8     9    2
    25     8    10   am
    26    10    13    1
    27    13    14    1
    28    14    15    1
    29    15    16    1
    30    16    17    1
    31    17    18    1
    32    10    11    1
    33    11    12    1
    34    12    19    1
    35    19    20   ar
    36    20    21   ar
    37    21    22   ar
    38    22    23   ar
    39    23    24   ar
    40     4     5    1
    41     5     6    1
    42    32    27   ar
    43     6     1    1
    44    39    34   ar
    45    12     7    1
    46    24    19   ar
    47    18    13    1
    48    41    43    1
    49    41    44    1
@<TRIPOS>MOLECULE
*****
 44 49 0 0 0
SMALL
GASTEIGER

@<TRIPOS>ATOM
      1 N         143.4344  140.1270  160.6293 N.3     1  UNL1       -0.2688
      2 C         143.9290  141.5225  160.8707 C.3     1  UNL1        0.0741
      3 C         143.3240  142.6727  160.1217 C.3     1  UNL1        0.0372
      4 C         142.2244  142.4275  159.1314 C.3     1  UNL1        0.0799
      5 C         141.7298  141.0321  158.8900 C.3     1  UNL1        0.0372
      6 C         142.3348  139.8819  159.6390 C.3     1  UNL1        0.0741
      7 N         141.6194  143.5777  158.3824 N.am    1  UNL1       -0.2618
      8 C         141.9438  143.9814  156.9746 C.2     1  UNL1        0.3074
      9 O         142.9301  143.3059  156.0687 O.2     1  UNL1       -0.2523
     10 N         141.1087  145.1794  156.6318 N.am    1  UNL1       -0.2635
     11 C         140.2681  145.5160  157.8277 C.3     1  UNL1        0.1192
     12 C         140.5838  144.5261  158.9096 C.3     1  UNL1        0.1191
     13 C         141.1133  145.9120  155.3229 C.3     1  UNL1        0.0819
     14 C         140.2455  147.1215  155.1375 C.3     1  UNL1        0.0520
     15 C         140.2502  147.8541  153.8286 C.3     1  UNL1        0.1439
     16 O         141.1225  147.3774  152.7053 O.3     1  UNL1       -0.3537
     17 C         141.9902  146.1680  152.8908 C.3     1  UNL1        0.1439
     18 C         141.9855  145.4353  154.1997 C.3     1  UNL1        0.0520
     19 C         139.9713  144.4908  160.2784 C.ar    1  UNL1       -0.0026
     20 C         139.0919  143.3429  160.6773 C.ar    1  UNL1       -0.0026
     21 C         138.4795  143.3076  162.0461 C.ar    1  UNL1       -0.0003
     22 C         138.7463  144.4202  163.0161 C.ar    1  UNL1       -0.0000
     23 C         139.6257  145.5681  162.6172 C.ar    1  UNL1       -0.0003
     24 C         140.2381  145.6034  161.2485 C.ar    1  UNL1       -0.0026
     25 C         144.0394  138.9768  161.3783 C.3     1  UNL1        0.1003
     26 C         141.5674  137.6548  162.4469 C.3     1  UNL1        0.0519
     27 C         142.5983  138.1943  163.3936 C.ar    1  UNL1        0.0598
     28 N         142.3933  138.0727  164.8745 N.ar    1  UNL1       -0.2160
     29 C         143.4242  138.6122  165.8211 C.ar    1  UNL1        0.2293
     30 C         144.6602  139.2731  165.2869 C.ar    1  UNL1        0.0578
     31 C         144.8652  139.3947  163.8060 C.ar    1  UNL1        0.0031
     32 C         143.8343  138.8552  162.8593 C.ar    1  UNL1        0.0077
     33 O         143.2191  138.4906  167.3021 O.3     1  UNL1       -0.4361
     34 C         142.5021  139.5743  168.0514 C.ar    1  UNL1        0.1472
     35 C         142.6935  139.7150  169.5325 C.ar    1  UNL1        0.0377
     36 C         141.9765  140.7987  170.2818 C.ar    1  UNL1        0.0076
     37 C         141.0680  141.7417  169.5500 C.ar    1  UNL1        0.0533
     38 C         140.8766  141.6010  168.0690 C.ar    1  UNL1        0.0076
     39 C         141.5936  140.5173  167.3197 C.ar    1  UNL1        0.0377
     40 C         140.3510  142.8254  170.2993 C.2     1  UNL1        0.2427
     41 N         139.9864  142.6258  171.7406 N.am    1  UNL1       -0.3253
     42 O         139.9984  144.1087  169.6073 O.2     1  UNL1       -0.2704
     43 H         140.2178  141.7835  172.1948 H       1  UNL1        0.1453
     44 H         139.5158  143.3370  172.2324 H       1  UNL1        0.1453
@<TRIPOS>BOND
     1    26    27    1
     2    27    28   ar
     3    28    29   ar
     4    29    33    1
     5    33    34    1
     6    34    35   ar
     7    35    36   ar
     8    36    37   ar
     9    37    40    1
    10    40    41   am
    11    40    42    2
    12    37    38   ar
    13    38    39   ar
    14    29    30   ar
    15    30    31   ar
    16    31    32   ar
    17    32    25    1
    18    25     1    1
    19     1     2    1
    20     2     3    1
    21     3     4    1
    22     4     7    1
    23     7     8   am
    24     8     9    2
    25     8    10   am
    26    10    13    1
    27    13    14    1
    28    14    15    1
    29    15    16    1
    30    16    17    1
    31    17    18    1
    32    10    11    1
    33    11    12    1
    34    12    19    1
    35    19    20   ar
    36    20    21   ar
    37    21    22   ar
    38    22    23   ar
    39    23    24   ar
    40     4     5    1
    41     5     6    1
    42    32    27   ar
    43     6     1    1
    44    39    34   ar
    45    12     7    1
    46    24    19   ar
    47    18    13    1
    48    41    43    1
    49    41    44    1
@<TRIPOS>MOLECULE
*****
 44 49 0 0 0
SMALL
GASTEIGER

@<TRIPOS>ATOM
      1 N         144.1761  141.6485  159.9871 N.3     1  UNL1       -0.2688
      2 C         143.6945  141.9720  158.6038 C.3     1  UNL1        0.0741
      3 C         142.9811  140.9294  157.7950 C.3     1  UNL1        0.0372
      4 C         142.7492  139.5633  158.3697 C.3     1  UNL1        0.0799
      5 C         143.2307  139.2399  159.7529 C.3     1  UNL1        0.0372
      6 C         143.9441  140.2825  160.5616 C.3     1  UNL1        0.0741
      7 N         142.0357  138.5208  157.5609 N.am    1  UNL1       -0.2618
      8 C         142.6520  137.6456  156.5102 C.2     1  UNL1        0.3074
      9 O         144.0901  137.6592  156.0836 O.2     1  UNL1       -0.2523
     10 N         141.5779  136.7542  155.9608 N.am    1  UNL1       -0.2635
     11 C         140.2977  137.0785  156.6721 C.3     1  UNL1        0.1192
     12 C         140.5807  138.1703  157.6610 C.3     1  UNL1        0.1191
     13 C         141.7533  135.7201  154.8885 C.3     1  UNL1        0.0819
     14 C         142.1315  134.3158  155.2556 C.3     1  UNL1        0.0520
     15 C         142.3069  133.2817  154.1833 C.3     1  UNL1        0.1439
     16 O         142.1039  133.6519  152.7439 O.3     1  UNL1       -0.3537
     17 C         141.7256  135.0562  152.3769 C.3     1  UNL1        0.1439
     18 C         141.5503  136.0903  153.4492 C.3     1  UNL1        0.0520
     19 C         139.5836  138.8010  158.5873 C.ar    1  UNL1       -0.0026
     20 C         139.4441  138.2984  159.9938 C.ar    1  UNL1       -0.0026
     21 C         138.4470  138.9290  160.9202 C.ar    1  UNL1       -0.0003
     22 C         137.5894  140.0622  160.4401 C.ar    1  UNL1       -0.0000
     23 C         137.7289  140.5647  159.0337 C.ar    1  UNL1       -0.0003
     24 C         138.7259  139.9341  158.1074 C.ar    1  UNL1       -0.0026
     25 C         144.8895  142.6911  160.7958 C.3     1  UNL1        0.1003
     26 C         142.6517  144.3876  161.8513 C.3     1  UNL1        0.0519
     27 C         143.5339  143.6337  162.8018 C.ar    1  UNL1        0.0598
     28 N         143.2972  143.7281  164.2800 N.ar    1  UNL1       -0.2160
     29 C         144.1794  142.9742  165.2304 C.ar    1  UNL1        0.2293
     30 C         145.2983  142.1259  164.7027 C.ar    1  UNL1        0.0578
     31 C         145.5350  142.0316  163.2245 C.ar    1  UNL1        0.0031
     32 C         144.6528  142.7855  162.2741 C.ar    1  UNL1        0.0077
     33 O         143.9427  143.0686  166.7086 O.3     1  UNL1       -0.4361
     34 C         142.8182  142.3014  167.3386 C.ar    1  UNL1        0.1472
     35 C         141.5428  142.0816  166.5801 C.ar    1  UNL1        0.0377
     36 C         140.4182  141.3145  167.2100 C.ar    1  UNL1        0.0076
     37 C         140.5690  140.7670  168.5985 C.ar    1  UNL1        0.0533
     38 C         141.8444  140.9868  169.3569 C.ar    1  UNL1        0.0076
     39 C         142.9689  141.7540  168.7269 C.ar    1  UNL1        0.0377
     40 C         139.4445  139.9999  169.2284 C.2     1  UNL1        0.2427
     41 N         139.3422  139.9100  170.7223 N.am    1  UNL1       -0.3253
     42 O         138.4222  139.3226  168.3646 O.2     1  UNL1       -0.2704
     43 H         140.0132  140.3545  171.2892 H       1  UNL1        0.1453
     44 H         138.6042  139.4065  171.1357 H       1  UNL1        0.1453
@<TRIPOS>BOND
     1    26    27    1
     2    27    28   ar
     3    28    29   ar
     4    29    33    1
     5    33    34    1
     6    34    35   ar
     7    35    36   ar
     8    36    37   ar
     9    37    40    1
    10    40    41   am
    11    40    42    2
    12    37    38   ar
    13    38    39   ar
    14    29    30   ar
    15    30    31   ar
    16    31    32   ar
    17    32    25    1
    18    25     1    1
    19     1     2    1
    20     2     3    1
    21     3     4    1
    22     4     7    1
    23     7     8   am
    24     8     9    2
    25     8    10   am
    26    10    13    1
    27    13    14    1
    28    14    15    1
    29    15    16    1
    30    16    17    1
    31    17    18    1
    32    10    11    1
    33    11    12    1
    34    12    19    1
    35    19    20   ar
    36    20    21   ar
    37    21    22   ar
    38    22    23   ar
    39    23    24   ar
    40     4     5    1
    41     5     6    1
    42    32    27   ar
    43     6     1    1
    44    39    34   ar
    45    12     7    1
    46    24    19   ar
    47    18    13    1
    48    41    43    1
    49    41    44    1
@<TRIPOS>MOLECULE
*****
 44 49 0 0 0
SMALL
GASTEIGER

@<TRIPOS>ATOM
      1 N         142.5346  142.9263  159.7653 N.3     1  UNL1       -0.2688
      2 C         143.0431  141.6702  160.4084 C.3     1  UNL1        0.0741
      3 C         142.6820  141.3563  161.8301 C.3     1  UNL1        0.0372
      4 C         141.8123  142.2985  162.6085 C.3     1  UNL1        0.0799
      5 C         141.3038  143.5546  161.9653 C.3     1  UNL1        0.0372
      6 C         141.6650  143.8685  160.5437 C.3     1  UNL1        0.0741
      7 N         141.4511  141.9846  164.0301 N.am    1  UNL1       -0.2618
      8 C         142.0584  142.6072  165.2522 C.2     1  UNL1        0.3074
      9 O         143.1336  143.6531  165.2673 O.2     1  UNL1       -0.2523
     10 N         141.4019  142.0004  166.4567 N.am    1  UNL1       -0.2635
     11 C         140.3888  141.0027  165.9790 C.3     1  UNL1        0.1192
     12 C         140.4192  140.9930  164.4793 C.3     1  UNL1        0.1191
     13 C         141.7052  142.3329  167.8876 C.3     1  UNL1        0.0819
     14 C         143.1095  142.2188  168.4025 C.3     1  UNL1        0.0520
     15 C         143.4128  142.5513  169.8334 C.3     1  UNL1        0.1439
     16 O         142.3119  142.9978  170.7492 O.3     1  UNL1       -0.3537
     17 C         140.9078  143.1119  170.2342 C.3     1  UNL1        0.1439
     18 C         140.6044  142.7794  168.8033 C.3     1  UNL1        0.0520
     19 C         139.5672  140.1411  163.5857 C.ar    1  UNL1       -0.0026
     20 C         139.7549  138.6529  163.5664 C.ar    1  UNL1       -0.0026
     21 C         138.9030  137.8010  162.6728 C.ar    1  UNL1       -0.0003
     22 C         137.8634  138.4373  161.7985 C.ar    1  UNL1       -0.0000
     23 C         137.6757  139.9253  161.8178 C.ar    1  UNL1       -0.0003
     24 C         138.5276  140.7772  162.7114 C.ar    1  UNL1       -0.0026
     25 C         142.8958  143.2402  158.3436 C.3     1  UNL1        0.1003
     26 C         140.6209  141.8385  156.9798 C.3     1  UNL1        0.0519
     27 C         140.8072  143.3160  156.8002 C.ar    1  UNL1        0.0598
     28 N         139.8560  144.0927  155.9388 N.ar    1  UNL1       -0.2160
     29 C         140.0424  145.5702  155.7592 C.ar    1  UNL1        0.2293
     30 C         141.1798  146.2711  156.4411 C.ar    1  UNL1        0.0578
     31 C         142.1309  145.4944  157.3026 C.ar    1  UNL1        0.0031
     32 C         141.9446  144.0169  157.4821 C.ar    1  UNL1        0.0077
     33 O         139.0912  146.3469  154.8977 O.3     1  UNL1       -0.4361
     34 C         139.1820  147.8430  154.8404 C.ar    1  UNL1        0.1472
     35 C         139.9298  148.5067  153.7221 C.ar    1  UNL1        0.0377
     36 C         140.0206  150.0029  153.6648 C.ar    1  UNL1        0.0076
     37 C         139.3636  150.8353  154.7257 C.ar    1  UNL1        0.0533
     38 C         138.6159  150.1716  155.8439 C.ar    1  UNL1        0.0076
     39 C         138.5251  148.6755  155.9012 C.ar    1  UNL1        0.0377
     40 C         139.4545  152.3315  154.6684 C.2     1  UNL1        0.2427
     41 N         140.2387  152.9939  153.5746 N.am    1  UNL1       -0.3253
     42 O         138.7611  153.1652  155.7047 O.2     1  UNL1       -0.2704
     43 H         140.6938  152.4467  152.8944 H       1  UNL1        0.1453
     44 H         140.2984  153.9758  153.5370 H       1  UNL1        0.1453
@<TRIPOS>BOND
     1    26    27    1
     2    27    28   ar
     3    28    29   ar
     4    29    33    1
     5    33    34    1
     6    34    35   ar
     7    35    36   ar
     8    36    37   ar
     9    37    40    1
    10    40    41   am
    11    40    42    2
    12    37    38   ar
    13    38    39   ar
    14    29    30   ar
    15    30    31   ar
    16    31    32   ar
    17    32    25    1
    18    25     1    1
    19     1     2    1
    20     2     3    1
    21     3     4    1
    22     4     7    1
    23     7     8   am
    24     8     9    2
    25     8    10   am
    26    10    13    1
    27    13    14    1
    28    14    15    1
    29    15    16    1
    30    16    17    1
    31    17    18    1
    32    10    11    1
    33    11    12    1
    34    12    19    1
    35    19    20   ar
    36    20    21   ar
    37    21    22   ar
    38    22    23   ar
    39    23    24   ar
    40     4     5    1
    41     5     6    1
    42    32    27   ar
    43     6     1    1
    44    39    34   ar
    45    12     7    1
    46    24    19   ar
    47    18    13    1
    48    41    43    1
    49    41    44    1
@<TRIPOS>MOLECULE
*****
 44 49 0 0 0
SMALL
GASTEIGER

@<TRIPOS>ATOM
      1 N         143.2974  142.2452  159.8254 N.3     1  UNL1       -0.2688
      2 C         142.5272  143.3608  160.4674 C.3     1  UNL1        0.0741
      3 C         142.0025  143.2034  161.8638 C.3     1  UNL1        0.0372
      4 C         142.2480  141.9302  162.6182 C.3     1  UNL1        0.0799
      5 C         143.0181  140.8147  161.9761 C.3     1  UNL1        0.0372
      6 C         143.5428  140.9721  160.5797 C.3     1  UNL1        0.0741
      7 N         141.7233  141.7728  164.0145 N.am    1  UNL1       -0.2618
      8 C         142.2922  142.4103  165.2474 C.2     1  UNL1        0.3074
      9 O         143.4858  143.3172  165.3002 O.2     1  UNL1       -0.2523
     10 N         141.4581  141.9817  166.4180 N.am    1  UNL1       -0.2635
     11 C         140.3735  141.0792  165.9087 C.3     1  UNL1        0.1192
     12 C         140.5375  140.9501  164.4233 C.3     1  UNL1        0.1191
     13 C         141.6711  142.3847  167.8471 C.3     1  UNL1        0.0819
     14 C         142.9888  142.1192  168.5127 C.3     1  UNL1        0.0520
     15 C         143.2018  142.5223  169.9417 C.3     1  UNL1        0.1439
     16 O         142.0971  143.1908  170.7051 O.3     1  UNL1       -0.3537
     17 C         140.7794  143.4563  170.0394 C.3     1  UNL1        0.1439
     18 C         140.5664  143.0533  168.6104 C.3     1  UNL1        0.0520
     19 C         139.6681  140.1405  163.5075 C.ar    1  UNL1       -0.0026
     20 C         138.6775  140.8259  162.6135 C.ar    1  UNL1       -0.0026
     21 C         137.8081  140.0162  161.6977 C.ar    1  UNL1       -0.0003
     22 C         137.9294  138.5213  161.6757 C.ar    1  UNL1       -0.0000
     23 C         138.9200  137.8360  162.5696 C.ar    1  UNL1       -0.0003
     24 C         139.7893  138.6456  163.4854 C.ar    1  UNL1       -0.0026
     25 C         143.8221  142.4026  158.4290 C.3     1  UNL1        0.1003
     26 C         141.0706  141.4711  157.6797 C.3     1  UNL1        0.0519
     27 C         142.2751  140.8276  157.0593 C.ar    1  UNL1        0.0598
     28 N         142.1039  139.7183  156.0643 N.ar    1  UNL1       -0.2160
     29 C         143.3084  139.0748  155.4438 C.ar    1  UNL1        0.2293
     30 C         144.6842  139.5405  155.8184 C.ar    1  UNL1        0.0578
     31 C         144.8554  140.6498  156.8135 C.ar    1  UNL1        0.0031
     32 C         143.6508  141.2933  157.4339 C.ar    1  UNL1        0.0077
     33 O         143.1372  137.9654  154.4487 O.3     1  UNL1       -0.4361
     34 C         142.9986  136.5486  154.9215 C.ar    1  UNL1        0.1472
     35 C         142.4208  135.5069  154.0098 C.ar    1  UNL1        0.0377
     36 C         142.2822  134.0901  154.4825 C.ar    1  UNL1        0.0076
     37 C         142.7214  133.7151  155.8670 C.ar    1  UNL1        0.0533
     38 C         143.2991  134.7568  156.7785 C.ar    1  UNL1        0.0076
     39 C         143.4377  136.1735  156.3058 C.ar    1  UNL1        0.0377
     40 C         142.5828  132.2983  156.3397 C.2     1  UNL1        0.2427
     41 N         143.2557  131.8613  157.6071 N.am    1  UNL1       -0.3253
     42 O         141.7713  131.3185  155.5451 O.2     1  UNL1       -0.2704
     43 H         143.7884  132.5044  158.1286 H       1  UNL1        0.1453
     44 H         143.1648  130.9314  157.9174 H       1  UNL1        0.1453
@<TRIPOS>BOND
     1    26    27    1
     2    27    28   ar
     3    28    29   ar
     4    29    33    1
     5    33    34    1
     6    34    35   ar
     7    35    36   ar
     8    36    37   ar
     9    37    40    1
    10    40    41   am
    11    40    42    2
    12    37    38   ar
    13    38    39   ar
    14    29    30   ar
    15    30    31   ar
    16    31    32   ar
    17    32    25    1
    18    25     1    1
    19     1     2    1
    20     2     3    1
    21     3     4    1
    22     4     7    1
    23     7     8   am
    24     8     9    2
    25     8    10   am
    26    10    13    1
    27    13    14    1
    28    14    15    1
    29    15    16    1
    30    16    17    1
    31    17    18    1
    32    10    11    1
    33    11    12    1
    34    12    19    1
    35    19    20   ar
    36    20    21   ar
    37    21    22   ar
    38    22    23   ar
    39    23    24   ar
    40     4     5    1
    41     5     6    1
    42    32    27   ar
    43     6     1    1
    44    39    34   ar
    45    12     7    1
    46    24    19   ar
    47    18    13    1
    48    41    43    1
    49    41    44    1
@<TRIPOS>MOLECULE
*****
 44 49 0 0 0
SMALL
GASTEIGER

@<TRIPOS>ATOM
      1 N         140.0978  140.6720  159.5712 N.3     1  UNL1       -0.2688
      2 C         141.0029  140.9821  158.4158 C.3     1  UNL1        0.0741
      3 C         140.6468  142.0799  157.4577 C.3     1  UNL1        0.0372
      4 C         139.3856  142.8677  157.6550 C.3     1  UNL1        0.0799
      5 C         138.4806  142.5577  158.8103 C.3     1  UNL1        0.0372
      6 C         138.8367  141.4598  159.7684 C.3     1  UNL1        0.0741
      7 N         139.0295  143.9656  156.6970 N.am    1  UNL1       -0.2618
      8 C         139.5193  145.3821  156.7576 C.2     1  UNL1        0.3074
      9 O         140.4512  145.9494  157.7871 O.2     1  UNL1       -0.2523
     10 N         138.9136  146.1317  155.6082 N.am    1  UNL1       -0.2635
     11 C         138.0495  145.1784  154.8371 C.3     1  UNL1        0.1192
     12 C         138.1211  143.8398  155.5100 C.3     1  UNL1        0.1191
     13 C         139.1335  147.5801  155.2864 C.3     1  UNL1        0.0819
     14 C         138.4898  148.6415  156.1285 C.3     1  UNL1        0.0520
     15 C         138.7096  150.0900  155.8067 C.3     1  UNL1        0.1439
     16 O         139.5731  150.4771  154.6428 O.3     1  UNL1       -0.3537
     17 C         140.2167  149.4156  153.8007 C.3     1  UNL1        0.1439
     18 C         139.9969  147.9672  154.1226 C.3     1  UNL1        0.0520
     19 C         137.4093  142.5939  155.0726 C.ar    1  UNL1       -0.0026
     20 C         136.1912  142.1269  155.8131 C.ar    1  UNL1       -0.0026
     21 C         135.4794  140.8811  155.3758 C.ar    1  UNL1       -0.0003
     22 C         135.9856  140.1023  154.1980 C.ar    1  UNL1       -0.0000
     23 C         137.2037  140.5693  153.4576 C.ar    1  UNL1       -0.0003
     24 C         137.9155  141.8150  153.8949 C.ar    1  UNL1       -0.0026
     25 C         140.4539  139.5742  160.5292 C.3     1  UNL1        0.1003
     26 C         140.2732  137.7152  162.8770 C.3     1  UNL1        0.0519
     27 C         141.0973  138.9650  162.9716 C.ar    1  UNL1        0.0598
     28 N         141.8310  139.2853  164.2401 N.ar    1  UNL1       -0.2160
     29 C         142.6550  140.5351  164.3347 C.ar    1  UNL1        0.2293
     30 C         142.7454  141.4646  163.1609 C.ar    1  UNL1        0.0578
     31 C         142.0117  141.1442  161.8924 C.ar    1  UNL1        0.0031
     32 C         141.1877  139.8945  161.7978 C.ar    1  UNL1        0.0077
     33 O         143.3887  140.8554  165.6033 O.3     1  UNL1       -0.4361
     34 C         142.6665  140.8176  166.9174 C.ar    1  UNL1        0.1472
     35 C         141.7590  141.9467  167.3072 C.ar    1  UNL1        0.0377
     36 C         141.0367  141.9089  168.6213 C.ar    1  UNL1        0.0076
     37 C         141.2220  140.7421  169.5456 C.ar    1  UNL1        0.0533
     38 C         142.1294  139.6132  169.1559 C.ar    1  UNL1        0.0076
     39 C         142.8517  139.6509  167.8417 C.ar    1  UNL1        0.0377
     40 C         140.4997  140.7043  170.8598 C.2     1  UNL1        0.2427
     41 N         139.6096  139.5439  171.1933 N.am    1  UNL1       -0.3253
     42 O         140.6675  141.8270  171.8403 O.2     1  UNL1       -0.2704
     43 H         139.4995  138.8071  170.5497 H       1  UNL1        0.1453
     44 H         139.1356  139.5191  172.0558 H       1  UNL1        0.1453
@<TRIPOS>BOND
     1    26    27    1
     2    27    28   ar
     3    28    29   ar
     4    29    33    1
     5    33    34    1
     6    34    35   ar
     7    35    36   ar
     8    36    37   ar
     9    37    40    1
    10    40    41   am
    11    40    42    2
    12    37    38   ar
    13    38    39   ar
    14    29    30   ar
    15    30    31   ar
    16    31    32   ar
    17    32    25    1
    18    25     1    1
    19     1     2    1
    20     2     3    1
    21     3     4    1
    22     4     7    1
    23     7     8   am
    24     8     9    2
    25     8    10   am
    26    10    13    1
    27    13    14    1
    28    14    15    1
    29    15    16    1
    30    16    17    1
    31    17    18    1
    32    10    11    1
    33    11    12    1
    34    12    19    1
    35    19    20   ar
    36    20    21   ar
    37    21    22   ar
    38    22    23   ar
    39    23    24   ar
    40     4     5    1
    41     5     6    1
    42    32    27   ar
    43     6     1    1
    44    39    34   ar
    45    12     7    1
    46    24    19   ar
    47    18    13    1
    48    41    43    1
    49    41    44    1
