@<TRIPOS>MOLECULE
*****
 19 21 0 0 0
SMALL
GASTEIGER

@<TRIPOS>ATOM
      1 C         138.8259  139.6607  166.2274 C.ar    1  UNL1       -0.0032
      2 C         138.7053  140.5669  165.0382 C.ar    1  UNL1        0.0758
      3 N         139.3602  141.8719  165.3817 N.ar    1  UNL1       -0.3052
      4 C         139.8855  141.7723  166.7832 C.ar    1  UNL1        0.0638
      5 C         140.6219  142.7494  167.6509 C.ar    1  UNL1        0.0184
      6 C         141.0280  142.3598  169.0413 C.ar    1  UNL1        0.0129
      7 C         140.6978  140.9932  169.5640 C.ar    1  UNL1        0.0578
      8 CL        141.1040  140.6037  170.9545 Cl      1  UNL1       -0.0822
      9 C         139.9614  140.0161  168.6963 C.ar    1  UNL1        0.0126
     10 C         139.5553  140.4056  167.3059 C.ar    1  UNL1        0.0144
     11 C         139.4704  143.0669  164.4817 C.ar    1  UNL1        0.0642
     12 C         140.7980  143.7365  164.2833 C.ar    1  UNL1        0.0198
     13 C         140.9082  144.9314  163.3834 C.ar    1  UNL1        0.0311
     14 C         139.6910  145.4568  162.6818 C.ar    1  UNL1        0.1402
     15 F         139.8012  146.6517  161.7818 F       1  UNL1       -0.2042
     16 C         138.3635  144.7872  162.8802 C.ar    1  UNL1        0.0311
     17 C         138.2532  143.5923  163.7802 C.ar    1  UNL1        0.0198
     18 C         137.2064  137.9259  167.2849 C.3     1  UNL1        0.0051
     19 C         138.3080  138.2561  166.3217 C.3     1  UNL1        0.0279
@<TRIPOS>BOND
     1    18    19    1
     2    19     1    1
     3     1     2   ar
     4     2     3   ar
     5     3    11    1
     6    11    12   ar
     7    12    13   ar
     8    13    14   ar
     9    14    15    1
    10    14    16   ar
    11    16    17   ar
    12     3     4   ar
    13     4     5   ar
    14     5     6   ar
    15     6     7   ar
    16     7     8    1
    17     7     9   ar
    18     9    10   ar
    19    10     1   ar
    20    17    11   ar
    21    10     4   ar
@<TRIPOS>MOLECULE
*****
 19 21 0 0 0
SMALL
GASTEIGER

@<TRIPOS>ATOM
      1 C         143.1552  143.1118  164.6650 C.ar    1  UNL1       -0.0032
      2 C         142.8431  142.2713  165.8675 C.ar    1  UNL1        0.0758
      3 N         141.3923  142.4580  166.1995 N.ar    1  UNL1       -0.3052
      4 C         140.8078  143.4139  165.2022 C.ar    1  UNL1        0.0638
      5 C         139.4242  143.9686  165.0351 C.ar    1  UNL1        0.0184
      6 C         139.1302  144.9274  163.9196 C.ar    1  UNL1        0.0129
      7 C         140.2198  145.3315  162.9712 C.ar    1  UNL1        0.0578
      8 CL        139.9258  146.2903  161.8557 Cl      1  UNL1       -0.0822
      9 C         141.6034  144.7768  163.1383 C.ar    1  UNL1        0.0126
     10 C         141.8974  143.8180  164.2538 C.ar    1  UNL1        0.0144
     11 C         140.6552  141.8037  167.3303 C.ar    1  UNL1        0.0642
     12 C         140.6064  142.4649  168.6759 C.ar    1  UNL1        0.0198
     13 C         139.8694  141.8106  169.8067 C.ar    1  UNL1        0.0311
     14 C         139.1812  140.4952  169.5920 C.ar    1  UNL1        0.1402
     15 F         138.4442  139.8409  170.7228 F       1  UNL1       -0.2042
     16 C         139.2301  139.8341  168.2464 C.ar    1  UNL1        0.0311
     17 C         139.9671  140.4884  167.1156 C.ar    1  UNL1        0.0198
     18 C         145.4256  142.0530  163.9759 C.3     1  UNL1        0.0051
     19 C         144.4908  143.2261  163.9918 C.3     1  UNL1        0.0279
@<TRIPOS>BOND
     1    18    19    1
     2    19     1    1
     3     1     2   ar
     4     2     3   ar
     5     3    11    1
     6    11    12   ar
     7    12    13   ar
     8    13    14   ar
     9    14    15    1
    10    14    16   ar
    11    16    17   ar
    12     3     4   ar
    13     4     5   ar
    14     5     6   ar
    15     6     7   ar
    16     7     8    1
    17     7     9   ar
    18     9    10   ar
    19    10     1   ar
    20    17    11   ar
    21    10     4   ar
@<TRIPOS>MOLECULE
*****
 19 21 0 0 0
SMALL
GASTEIGER

@<TRIPOS>ATOM
      1 C         139.0221  139.0262  166.6962 C.ar    1  UNL1       -0.0032
      2 C         139.3597  139.9127  167.8582 C.ar    1  UNL1        0.0758
      3 N         140.7519  140.4329  167.6551 N.ar    1  UNL1       -0.3052
      4 C         141.2747  139.8678  166.3677 C.ar    1  UNL1        0.0638
      5 C         142.5862  140.0327  165.6585 C.ar    1  UNL1        0.0184
      6 C         142.8285  139.3281  164.3567 C.ar    1  UNL1        0.0129
      7 C         141.7594  138.4587  163.7641 C.ar    1  UNL1        0.0578
      8 CL        142.0018  137.7541  162.4621 Cl      1  UNL1       -0.0822
      9 C         140.4480  138.2939  164.4732 C.ar    1  UNL1        0.0126
     10 C         140.2057  138.9984  165.7751 C.ar    1  UNL1        0.0144
     11 C         141.4915  141.3560  168.5775 C.ar    1  UNL1        0.0642
     12 C         140.8105  142.5770  169.1213 C.ar    1  UNL1        0.0198
     13 C         141.5500  143.5001  170.0437 C.ar    1  UNL1        0.0311
     14 C         142.9706  143.2024  170.4224 C.ar    1  UNL1        0.1402
     15 F         143.7101  144.1255  171.3448 F       1  UNL1       -0.2042
     16 C         143.6515  141.9815  169.8787 C.ar    1  UNL1        0.0311
     17 C         142.9119  141.0583  168.9562 C.ar    1  UNL1        0.0198
     18 C         136.9910  137.7310  167.6695 C.3     1  UNL1        0.0051
     19 C         137.7282  138.2956  166.4913 C.3     1  UNL1        0.0279
@<TRIPOS>BOND
     1    18    19    1
     2    19     1    1
     3     1     2   ar
     4     2     3   ar
     5     3    11    1
     6    11    12   ar
     7    12    13   ar
     8    13    14   ar
     9    14    15    1
    10    14    16   ar
    11    16    17   ar
    12     3     4   ar
    13     4     5   ar
    14     5     6   ar
    15     6     7   ar
    16     7     8    1
    17     7     9   ar
    18     9    10   ar
    19    10     1   ar
    20    17    11   ar
    21    10     4   ar
@<TRIPOS>MOLECULE
*****
 19 21 0 0 0
SMALL
GASTEIGER

@<TRIPOS>ATOM
      1 C         140.4513  141.6420  168.8823 C.ar    1  UNL1       -0.0032
      2 C         141.4459  142.4843  168.1399 C.ar    1  UNL1        0.0758
      3 N         141.4289  142.0614  166.7009 N.ar    1  UNL1       -0.3052
      4 C         140.4238  140.9577  166.5539 C.ar    1  UNL1        0.0638
      5 C         139.9808  140.1552  165.3666 C.ar    1  UNL1        0.0184
      6 C         138.9334  139.0935  165.5276 C.ar    1  UNL1        0.0129
      7 C         138.3292  138.8343  166.8758 C.ar    1  UNL1        0.0578
      8 CL        137.2818  137.7726  167.0367 Cl      1  UNL1       -0.0822
      9 C         138.7723  139.6368  168.0631 C.ar    1  UNL1        0.0126
     10 C         139.8196  140.6985  167.9021 C.ar    1  UNL1        0.0144
     11 C         142.2695  142.6405  165.6018 C.ar    1  UNL1        0.0642
     12 C         143.7278  142.2998  165.5139 C.ar    1  UNL1        0.0198
     13 C         144.5683  142.8789  164.4148 C.ar    1  UNL1        0.0311
     14 C         143.9508  143.7986  163.4035 C.ar    1  UNL1        0.1402
     15 F         144.7913  144.3777  162.3044 F       1  UNL1       -0.2042
     16 C         142.4926  144.1392  163.4913 C.ar    1  UNL1        0.0311
     17 C         141.6520  143.5601  164.5905 C.ar    1  UNL1        0.0198
     18 C         139.5789  142.9939  170.9223 C.3     1  UNL1        0.0051
     19 C         140.1425  141.7280  170.3477 C.3     1  UNL1        0.0279
@<TRIPOS>BOND
     1    18    19    1
     2    19     1    1
     3     1     2   ar
     4     2     3   ar
     5     3    11    1
     6    11    12   ar
     7    12    13   ar
     8    13    14   ar
     9    14    15    1
    10    14    16   ar
    11    16    17   ar
    12     3     4   ar
    13     4     5   ar
    14     5     6   ar
    15     6     7   ar
    16     7     8    1
    17     7     9   ar
    18     9    10   ar
    19    10     1   ar
    20    17    11   ar
    21    10     4   ar
@<TRIPOS>MOLECULE
*****
 19 21 0 0 0
SMALL
GASTEIGER

@<TRIPOS>ATOM
      1 C         140.7809  141.6201  168.1915 C.ar    1  UNL1       -0.0032
      2 C         140.2790  142.7819  167.3863 C.ar    1  UNL1        0.0758
      3 N         140.8717  142.6837  166.0119 N.ar    1  UNL1       -0.3052
      4 C         141.7398  141.4613  165.9676 C.ar    1  UNL1        0.0638
      5 C         142.5741  140.8618  164.8747 C.ar    1  UNL1        0.0184
      6 C         143.3524  139.6050  165.1289 C.ar    1  UNL1        0.0129
      7 C         143.2963  138.9476  166.4760 C.ar    1  UNL1        0.0578
      8 CL        144.0746  137.6907  166.7302 Cl      1  UNL1       -0.0822
      9 C         142.4620  139.5471  167.5689 C.ar    1  UNL1        0.0126
     10 C         141.6838  140.8039  167.3147 C.ar    1  UNL1        0.0144
     11 C         140.6373  143.6401  164.8803 C.ar    1  UNL1        0.0642
     12 C         139.2445  143.8805  164.3777 C.ar    1  UNL1        0.0198
     13 C         139.0102  144.8369  163.2462 C.ar    1  UNL1        0.0311
     14 C         140.1685  145.5528  162.6172 C.ar    1  UNL1        0.1402
     15 F         139.9341  146.5092  161.4856 F       1  UNL1       -0.2042
     16 C         141.5612  145.3124  163.1197 C.ar    1  UNL1        0.0311
     17 C         141.7955  144.3561  164.2513 C.ar    1  UNL1        0.0198
     18 C         139.2148  140.5257  169.9522 C.3     1  UNL1        0.0051
     19 C         140.4399  141.3260  169.6223 C.3     1  UNL1        0.0279
@<TRIPOS>BOND
     1    18    19    1
     2    19     1    1
     3     1     2   ar
     4     2     3   ar
     5     3    11    1
     6    11    12   ar
     7    12    13   ar
     8    13    14   ar
     9    14    15    1
    10    14    16   ar
    11    16    17   ar
    12     3     4   ar
    13     4     5   ar
    14     5     6   ar
    15     6     7   ar
    16     7     8    1
    17     7     9   ar
    18     9    10   ar
    19    10     1   ar
    20    17    11   ar
    21    10     4   ar
@<TRIPOS>MOLECULE
*****
 19 21 0 0 0
SMALL
GASTEIGER

@<TRIPOS>ATOM
      1 C         139.9652  138.4280  164.5092 C.ar    1  UNL1       -0.0032
      2 C         139.8464  139.2376  165.7664 C.ar    1  UNL1        0.0758
      3 N         141.1720  139.8904  166.0243 N.ar    1  UNL1       -0.3052
      4 C         142.1101  139.4844  164.9265 C.ar    1  UNL1        0.0638
      5 C         143.5471  139.8209  164.6586 C.ar    1  UNL1        0.0184
      6 C         144.2382  139.2535  163.4543 C.ar    1  UNL1        0.0129
      7 C         143.4924  138.3497  162.5179 C.ar    1  UNL1        0.0578
      8 CL        144.1836  137.7824  161.3135 Cl      1  UNL1       -0.0822
      9 C         142.0554  138.0132  162.7858 C.ar    1  UNL1        0.0126
     10 C         141.3643  138.5806  163.9901 C.ar    1  UNL1        0.0144
     11 C         141.5016  140.7912  167.1775 C.ar    1  UNL1        0.0642
     12 C         142.6390  140.4503  168.0942 C.ar    1  UNL1        0.0198
     13 C         142.9687  141.3511  169.2475 C.ar    1  UNL1        0.0311
     14 C         142.1610  142.5928  169.4840 C.ar    1  UNL1        0.1402
     15 F         142.4907  143.4936  170.6372 F       1  UNL1       -0.2042
     16 C         141.0238  142.9337  168.5673 C.ar    1  UNL1        0.0311
     17 C         140.6941  142.0329  167.4141 C.ar    1  UNL1        0.0198
     18 C         138.3952  137.9360  162.4984 C.3     1  UNL1        0.0051
     19 C         138.8762  137.6096  163.8813 C.3     1  UNL1        0.0279
@<TRIPOS>BOND
     1    18    19    1
     2    19     1    1
     3     1     2   ar
     4     2     3   ar
     5     3    11    1
     6    11    12   ar
     7    12    13   ar
     8    13    14   ar
     9    14    15    1
    10    14    16   ar
    11    16    17   ar
    12     3     4   ar
    13     4     5   ar
    14     5     6   ar
    15     6     7   ar
    16     7     8    1
    17     7     9   ar
    18     9    10   ar
    19    10     1   ar
    20    17    11   ar
    21    10     4   ar
@<TRIPOS>MOLECULE
*****
 19 21 0 0 0
SMALL
GASTEIGER

@<TRIPOS>ATOM
      1 C         138.9762  139.8750  163.5516 C.ar    1  UNL1       -0.0032
      2 C         138.6084  140.4730  164.8771 C.ar    1  UNL1        0.0758
      3 N         139.8298  140.4575  165.7476 N.ar    1  UNL1       -0.3052
      4 C         140.9526  139.8499  164.9600 C.ar    1  UNL1        0.0638
      5 C         142.3872  139.5779  165.3034 C.ar    1  UNL1        0.0184
      6 C         143.2942  138.9459  164.2896 C.ar    1  UNL1        0.0129
      7 C         142.7666  138.5859  162.9324 C.ar    1  UNL1        0.0578
      8 CL        143.6737  137.9538  161.9185 Cl      1  UNL1       -0.0822
      9 C         141.3320  138.8578  162.5890 C.ar    1  UNL1        0.0126
     10 C         140.4250  139.4899  163.6028 C.ar    1  UNL1        0.0144
     11 C         139.9139  140.9612  167.1580 C.ar    1  UNL1        0.0642
     12 C         139.4467  140.0974  168.2919 C.ar    1  UNL1        0.0198
     13 C         139.5307  140.6010  169.7024 C.ar    1  UNL1        0.0311
     14 C         140.0819  141.9684  169.9789 C.ar    1  UNL1        0.1402
     15 F         140.1659  142.4721  171.3893 F       1  UNL1       -0.2042
     16 C         140.5490  142.8322  168.8450 C.ar    1  UNL1        0.0311
     17 C         140.4650  142.3285  167.4345 C.ar    1  UNL1        0.0198
     18 C         137.7942  138.3200  161.8383 C.3     1  UNL1        0.0051
     19 C         138.0567  139.6939  162.3804 C.3     1  UNL1        0.0279
@<TRIPOS>BOND
     1    18    19    1
     2    19     1    1
     3     1     2   ar
     4     2     3   ar
     5     3    11    1
     6    11    12   ar
     7    12    13   ar
     8    13    14   ar
     9    14    15    1
    10    14    16   ar
    11    16    17   ar
    12     3     4   ar
    13     4     5   ar
    14     5     6   ar
    15     6     7   ar
    16     7     8    1
    17     7     9   ar
    18     9    10   ar
    19    10     1   ar
    20    17    11   ar
    21    10     4   ar
@<TRIPOS>MOLECULE
*****
 19 21 0 0 0
SMALL
GASTEIGER

@<TRIPOS>ATOM
      1 C         142.0962  139.7519  165.7620 C.ar    1  UNL1       -0.0032
      2 C         141.8816  140.6853  164.6076 C.ar    1  UNL1        0.0758
      3 N         141.2492  141.9386  165.1362 N.ar    1  UNL1       -0.3052
      4 C         141.0730  141.7798  166.6173 C.ar    1  UNL1        0.0638
      5 C         140.5036  142.6911  167.6638 C.ar    1  UNL1        0.0184
      6 C         140.4576  142.2510  169.0970 C.ar    1  UNL1        0.0129
      7 C         140.9810  140.8996  169.4838 C.ar    1  UNL1        0.0578
      8 CL        140.9350  140.4595  170.9171 Cl      1  UNL1       -0.0822
      9 C         141.5505  139.9882  168.4373 C.ar    1  UNL1        0.0126
     10 C         141.5965  140.4283  167.0041 C.ar    1  UNL1        0.0144
     11 C         140.8612  143.1398  164.3260 C.ar    1  UNL1        0.0642
     12 C         139.4235  143.5611  164.2506 C.ar    1  UNL1        0.0198
     13 C         139.0354  144.7623  163.4403 C.ar    1  UNL1        0.0311
     14 C         140.0850  145.5423  162.7055 C.ar    1  UNL1        0.1402
     15 F         139.6970  146.7435  161.8953 F       1  UNL1       -0.2042
     16 C         141.5227  145.1210  162.7809 C.ar    1  UNL1        0.0311
     17 C         141.9107  143.9198  163.5912 C.ar    1  UNL1        0.0198
     18 C         143.9196  138.0561  166.5032 C.3     1  UNL1        0.0051
     19 C         142.7038  138.3825  165.6875 C.3     1  UNL1        0.0279
@<TRIPOS>BOND
     1    18    19    1
     2    19     1    1
     3     1     2   ar
     4     2     3   ar
     5     3    11    1
     6    11    12   ar
     7    12    13   ar
     8    13    14   ar
     9    14    15    1
    10    14    16   ar
    11    16    17   ar
    12     3     4   ar
    13     4     5   ar
    14     5     6   ar
    15     6     7   ar
    16     7     8    1
    17     7     9   ar
    18     9    10   ar
    19    10     1   ar
    20    17    11   ar
    21    10     4   ar
@<TRIPOS>MOLECULE
*****
 19 21 0 0 0
SMALL
GASTEIGER

@<TRIPOS>ATOM
      1 C         139.4509  139.7822  165.2872 C.ar    1  UNL1       -0.0032
      2 C         140.2423  140.6704  164.3736 C.ar    1  UNL1        0.0758
      3 N         140.9031  141.7253  165.2107 N.ar    1  UNL1       -0.3052
      4 C         140.5201  141.4889  166.6416 C.ar    1  UNL1        0.0638
      5 C         140.8726  142.2121  167.9076 C.ar    1  UNL1        0.0184
      6 C         140.3276  141.7343  169.2208 C.ar    1  UNL1        0.0129
      7 C         139.4301  140.5334  169.2681 C.ar    1  UNL1        0.0578
      8 CL        138.8851  140.0556  170.5815 Cl      1  UNL1       -0.0822
      9 C         139.0776  139.8102  168.0022 C.ar    1  UNL1        0.0126
     10 C         139.6226  140.2880  166.6889 C.ar    1  UNL1        0.0144
     11 C         141.7910  142.8237  164.7056 C.ar    1  UNL1        0.0642
     12 C         143.2768  142.7319  164.8906 C.ar    1  UNL1        0.0198
     13 C         144.1647  143.8303  164.3854 C.ar    1  UNL1        0.0311
     14 C         143.5670  145.0204  163.6954 C.ar    1  UNL1        0.1402
     15 F         144.4549  146.1188  163.1903 F       1  UNL1       -0.2042
     16 C         142.0813  145.1122  163.5104 C.ar    1  UNL1        0.0311
     17 C         141.1933  144.0138  164.0156 C.ar    1  UNL1        0.0198
     18 C         139.1594  137.6445  163.8396 C.3     1  UNL1        0.0051
     19 C         138.6317  138.5962  164.8720 C.3     1  UNL1        0.0279
@<TRIPOS>BOND
     1    18    19    1
     2    19     1    1
     3     1     2   ar
     4     2     3   ar
     5     3    11    1
     6    11    12   ar
     7    12    13   ar
     8    13    14   ar
     9    14    15    1
    10    14    16   ar
    11    16    17   ar
    12     3     4   ar
    13     4     5   ar
    14     5     6   ar
    15     6     7   ar
    16     7     8    1
    17     7     9   ar
    18     9    10   ar
    19    10     1   ar
    20    17    11   ar
    21    10     4   ar
