@<TRIPOS>MOLECULE
*****
 36 39 0 0 0
SMALL
GASTEIGER

@<TRIPOS>ATOM
      1 C         141.0700  138.7958  160.1410 C.3     1  UNL1        0.1700
      2 O         141.6013  139.5554  158.9617 O.3     1  UNL1       -0.3793
      3 H         140.8609  139.9177  158.4503 H       1  UNL1        0.2106
      4 C         139.5901  138.6981  160.3654 C.3     1  UNL1        0.2358
      5 O         138.8481  139.8450  160.9850 O.3     1  UNL1       -0.4714
      6 C         138.3030  141.1887  163.1407 C.ar    1  UNL1        0.0861
      7 C         138.0978  141.2343  164.6260 C.ar    1  UNL1        0.0209
      8 C         138.2324  139.9820  165.4405 C.ar    1  UNL1        0.0381
      9 C         138.5723  138.6840  164.7699 C.ar    1  UNL1        0.1368
     10 O         138.7069  137.4317  165.5845 O.3     1  UNL1       -0.5054
     11 C         138.7775  138.6383  163.2848 C.ar    1  UNL1        0.0747
     12 C         138.6429  139.8907  162.4701 C.ar    1  UNL1        0.1550
     13 H         138.5787  137.4602  166.5122 H       1  UNL1        0.2922
     14 C         140.1029  145.8545  161.7300 C.3     1  UNL1        0.1122
     15 N         139.0683  144.7739  161.6208 N.am    1  UNL1       -0.2869
     16 C         139.2030  143.5216  162.4354 C.2     1  UNL1        0.3046
     17 O         140.3722  143.3499  163.3592 O.2     1  UNL1       -0.2525
     18 N         138.1684  142.4410  162.3262 N.am    1  UNL1       -0.2658
     19 H         138.3009  144.8866  161.0145 H       1  UNL1        0.1510
     20 H         137.4010  142.5537  161.7199 H       1  UNL1        0.1565
     21 C         142.0187  138.1340  161.0960 C.3     1  UNL1        0.1056
     22 N         142.1464  138.6443  162.5008 N.3     1  UNL1       -0.2703
     23 C         142.0866  137.6876  163.6546 C.3     1  UNL1        0.0758
     24 C         142.2144  138.1979  165.0593 C.3     1  UNL1        0.0577
     25 C         142.4019  139.6648  165.3102 C.3     1  UNL1        0.1399
     26 C         142.4616  140.6215  164.1565 C.3     1  UNL1        0.0577
     27 C         142.3339  140.1112  162.7518 C.3     1  UNL1        0.0758
     28 C         142.5924  141.0968  165.7142 C.3     1  UNL1        0.0695
     29 C         142.6698  141.1497  167.2114 C.ar    1  UNL1        0.0161
     30 C         142.8518  142.2912  168.1673 C.ar    1  UNL1        0.0102
     31 C         142.8911  142.0335  169.6445 C.ar    1  UNL1        0.0576
     32 CL        143.0731  143.1750  170.6004 Cl      1  UNL1       -0.0823
     33 C         142.7483  140.6343  170.1657 C.ar    1  UNL1        0.0145
     34 C         142.5663  139.4927  169.2098 C.ar    1  UNL1        0.0374
     35 C         142.5271  139.7504  167.7326 C.ar    1  UNL1        0.1343
     36 O         142.3615  138.8327  166.5577 O.3     1  UNL1       -0.4825
@<TRIPOS>BOND
     1    14    15    1
     2    15    16   am
     3    16    17    2
     4    16    18   am
     5    18     6    1
     6     6     7   ar
     7     7     8   ar
     8     8     9   ar
     9     9    10    1
    10     9    11   ar
    11    11    12   ar
    12    12     5    1
    13     5     4    1
    14     4     1    1
    15     1     2    1
    16     1    21    1
    17    21    22    1
    18    22    23    1
    19    23    24    1
    20    24    25    1
    21    25    26    1
    22    26    27    1
    23    25    28    1
    24    28    29    1
    25    29    30   ar
    26    30    31   ar
    27    31    32    1
    28    31    33   ar
    29    33    34   ar
    30    34    35   ar
    31    35    36    1
    32    12     6   ar
    33    27    22    1
    34    35    29   ar
    35    36    25    1
    36    15    19    1
    37    18    20    1
    38    10    13    1
    39     2     3    1
@<TRIPOS>MOLECULE
*****
 36 39 0 0 0
SMALL
GASTEIGER

@<TRIPOS>ATOM
      1 C         140.9137  145.0854  160.7514 C.3     1  UNL1        0.1700
      2 O         141.8849  145.7633  159.8308 O.3     1  UNL1       -0.3793
      3 H         141.8972  145.3022  158.9775 H       1  UNL1        0.2106
      4 C         140.1483  143.8840  160.2813 C.3     1  UNL1        0.2358
      5 O         140.6108  142.5069  160.6548 O.3     1  UNL1       -0.4714
      6 C         140.6215  140.7282  162.5486 C.ar    1  UNL1        0.0861
      7 C         139.8944  139.9547  163.6084 C.ar    1  UNL1        0.0209
      8 C         138.4298  140.1863  163.8342 C.ar    1  UNL1        0.0381
      9 C         137.6921  141.1915  163.0003 C.ar    1  UNL1        0.1368
     10 O         136.2274  141.4231  163.2261 O.3     1  UNL1       -0.5054
     11 C         138.4190  141.9650  161.9405 C.ar    1  UNL1        0.0747
     12 C         139.8838  141.7334  161.7146 C.ar    1  UNL1        0.1550
     13 H         135.7733  140.9399  163.8881 H       1  UNL1        0.2922
     14 C         144.5227  137.5729  161.1978 C.3     1  UNL1        0.1122
     15 N         144.0367  138.9189  161.6474 N.am    1  UNL1       -0.2869
     16 C         142.5721  139.1506  161.8732 C.2     1  UNL1        0.3046
     17 O         141.5933  138.0362  161.6494 O.2     1  UNL1       -0.2525
     18 N         142.0862  140.4966  162.3228 N.am    1  UNL1       -0.2658
     19 H         144.6792  139.6503  161.7942 H       1  UNL1        0.1510
     20 H         142.7286  141.2280  162.4696 H       1  UNL1        0.1565
     21 C         140.7080  145.6089  162.1419 C.3     1  UNL1        0.1056
     22 N         140.7986  144.6781  163.3148 N.3     1  UNL1       -0.2703
     23 C         139.5969  144.4447  164.1816 C.3     1  UNL1        0.0758
     24 C         139.6875  143.5140  165.3544 C.3     1  UNL1        0.0577
     25 C         140.9799  142.8167  165.6604 C.3     1  UNL1        0.1399
     26 C         142.1816  143.0501  164.7936 C.3     1  UNL1        0.0577
     27 C         142.0910  143.9808  163.6208 C.3     1  UNL1        0.0758
     28 C         142.1981  142.0530  166.0878 C.3     1  UNL1        0.0695
     29 C         141.8393  141.2505  167.3033 C.ar    1  UNL1        0.0161
     30 C         142.6377  140.3105  168.1571 C.ar    1  UNL1        0.0102
     31 C         141.9962  139.6384  169.3347 C.ar    1  UNL1        0.0576
     32 CL        142.7947  138.6985  170.1885 Cl      1  UNL1       -0.0823
     33 C         140.5563  139.9062  169.6585 C.ar    1  UNL1        0.0145
     34 C         139.7578  140.8461  168.8047 C.ar    1  UNL1        0.0374
     35 C         140.3993  141.5183  167.6271 C.ar    1  UNL1        0.1343
     36 O         139.8682  142.4862  166.6117 O.3     1  UNL1       -0.4825
@<TRIPOS>BOND
     1    14    15    1
     2    15    16   am
     3    16    17    2
     4    16    18   am
     5    18     6    1
     6     6     7   ar
     7     7     8   ar
     8     8     9   ar
     9     9    10    1
    10     9    11   ar
    11    11    12   ar
    12    12     5    1
    13     5     4    1
    14     4     1    1
    15     1     2    1
    16     1    21    1
    17    21    22    1
    18    22    23    1
    19    23    24    1
    20    24    25    1
    21    25    26    1
    22    26    27    1
    23    25    28    1
    24    28    29    1
    25    29    30   ar
    26    30    31   ar
    27    31    32    1
    28    31    33   ar
    29    33    34   ar
    30    34    35   ar
    31    35    36    1
    32    12     6   ar
    33    27    22    1
    34    35    29   ar
    35    36    25    1
    36    15    19    1
    37    18    20    1
    38    10    13    1
    39     2     3    1
@<TRIPOS>MOLECULE
*****
 36 39 0 0 0
SMALL
GASTEIGER

@<TRIPOS>ATOM
      1 C         137.9723  140.0754  160.4293 C.3     1  UNL1        0.1700
      2 O         136.5873  139.5228  160.5917 O.3     1  UNL1       -0.3793
      3 H         136.5413  138.6420  160.1880 H       1  UNL1        0.2106
      4 C         139.0235  139.2697  159.7249 C.3     1  UNL1        0.2358
      5 O         139.5341  138.0010  160.3410 O.3     1  UNL1       -0.4714
      6 C         141.7545  138.0130  161.6899 C.ar    1  UNL1        0.0861
      7 C         142.4757  138.0549  163.0045 C.ar    1  UNL1        0.0209
      8 C         141.6975  138.1268  164.2848 C.ar    1  UNL1        0.0381
      9 C         140.1982  138.1568  164.2506 C.ar    1  UNL1        0.1368
     10 O         139.4200  138.2286  165.5308 O.3     1  UNL1       -0.5054
     11 C         139.4770  138.1148  162.9360 C.ar    1  UNL1        0.0747
     12 C         140.2552  138.0429  161.6556 C.ar    1  UNL1        0.1550
     13 H         139.8704  138.2548  166.3521 H       1  UNL1        0.2922
     14 C         144.1371  140.3923  157.7324 C.3     1  UNL1        0.1122
     15 N         143.7240  139.1307  158.4308 N.am    1  UNL1       -0.2869
     16 C         142.9458  139.2026  159.7111 C.2     1  UNL1        0.3046
     17 O         142.5808  140.5361  160.2930 O.2     1  UNL1       -0.2525
     18 N         142.5327  137.9411  160.4096 N.am    1  UNL1       -0.2658
     19 H         143.9637  138.2556  158.0489 H       1  UNL1        0.1510
     20 H         142.7724  137.0659  160.0277 H       1  UNL1        0.1565
     21 C         138.3062  141.4337  160.9711 C.3     1  UNL1        0.1056
     22 N         138.9439  141.5661  162.3224 N.3     1  UNL1       -0.2703
     23 C         138.0964  141.5224  163.5592 C.3     1  UNL1        0.0758
     24 C         138.7342  141.6548  164.9104 C.3     1  UNL1        0.0577
     25 C         140.2194  141.8310  165.0247 C.3     1  UNL1        0.1399
     26 C         141.0669  141.8748  163.7879 C.3     1  UNL1        0.0577
     27 C         140.4291  141.7423  162.4367 C.3     1  UNL1        0.0758
     28 C         141.6838  142.0116  165.2947 C.3     1  UNL1        0.0695
     29 C         141.8742  142.0984  166.7801 C.ar    1  UNL1        0.0161
     30 C         143.0998  142.2765  167.6262 C.ar    1  UNL1        0.0102
     31 C         142.9787  142.3278  169.1204 C.ar    1  UNL1        0.0576
     32 CL        144.2043  142.5060  169.9666 Cl      1  UNL1       -0.0823
     33 C         141.6319  142.2008  169.7685 C.ar    1  UNL1        0.0145
     34 C         140.4062  142.0226  168.9224 C.ar    1  UNL1        0.0374
     35 C         140.5273  141.9714  167.4282 C.ar    1  UNL1        0.1343
     36 O         139.5046  141.8062  166.3434 O.3     1  UNL1       -0.4825
@<TRIPOS>BOND
     1    14    15    1
     2    15    16   am
     3    16    17    2
     4    16    18   am
     5    18     6    1
     6     6     7   ar
     7     7     8   ar
     8     8     9   ar
     9     9    10    1
    10     9    11   ar
    11    11    12   ar
    12    12     5    1
    13     5     4    1
    14     4     1    1
    15     1     2    1
    16     1    21    1
    17    21    22    1
    18    22    23    1
    19    23    24    1
    20    24    25    1
    21    25    26    1
    22    26    27    1
    23    25    28    1
    24    28    29    1
    25    29    30   ar
    26    30    31   ar
    27    31    32    1
    28    31    33   ar
    29    33    34   ar
    30    34    35   ar
    31    35    36    1
    32    12     6   ar
    33    27    22    1
    34    35    29   ar
    35    36    25    1
    36    15    19    1
    37    18    20    1
    38    10    13    1
    39     2     3    1
@<TRIPOS>MOLECULE
*****
 36 39 0 0 0
SMALL
GASTEIGER

@<TRIPOS>ATOM
      1 C         141.5438  138.9261  159.7523 C.3     1  UNL1        0.1700
      2 O         141.1119  140.0447  158.8510 O.3     1  UNL1       -0.3793
      3 H         141.8446  140.2881  158.2638 H       1  UNL1        0.2106
      4 C         142.9328  138.3700  159.6447 C.3     1  UNL1        0.2358
      5 O         144.1097  139.2089  160.0458 O.3     1  UNL1       -0.4714
      6 C         144.4452  141.2714  161.5896 C.ar    1  UNL1        0.0861
      7 C         144.5066  141.8690  162.9641 C.ar    1  UNL1        0.0209
      8 C         144.2938  141.0016  164.1692 C.ar    1  UNL1        0.0381
      9 C         144.0196  139.5366  163.9999 C.ar    1  UNL1        0.1368
     10 O         143.8068  138.6692  165.2050 O.3     1  UNL1       -0.5054
     11 C         143.9583  138.9390  162.6255 C.ar    1  UNL1        0.0747
     12 C         144.1711  139.8064  161.4203 C.ar    1  UNL1        0.1550
     13 H         143.8452  139.0425  166.0635 H       1  UNL1        0.2922
     14 C         142.5178  144.2319  157.7791 C.3     1  UNL1        0.1122
     15 N         143.6943  143.6191  158.4793 N.am    1  UNL1       -0.2869
     16 C         143.4815  142.7517  159.6843 C.2     1  UNL1        0.3046
     17 O         142.0922  142.4971  160.1893 O.2     1  UNL1       -0.2525
     18 N         144.6580  142.1388  160.3845 N.am    1  UNL1       -0.2658
     19 H         144.6062  143.7862  158.1478 H       1  UNL1        0.1510
     20 H         145.5699  142.3059  160.0531 H       1  UNL1        0.1565
     21 C         140.5868  138.3637  160.7611 C.3     1  UNL1        0.1056
     22 N         140.5254  138.9454  162.1424 N.3     1  UNL1       -0.2703
     23 C         140.3223  138.0469  163.3262 C.3     1  UNL1        0.0758
     24 C         140.2609  138.6286  164.7074 C.3     1  UNL1        0.0577
     25 C         140.4027  140.1087  164.9048 C.3     1  UNL1        0.1399
     26 C         140.6058  141.0072  163.7210 C.3     1  UNL1        0.0577
     27 C         140.6671  140.4255  162.3398 C.3     1  UNL1        0.0758
     28 C         140.5277  141.5617  165.2560 C.3     1  UNL1        0.0695
     29 C         140.4078  141.6906  166.7457 C.ar    1  UNL1        0.0161
     30 C         140.4542  142.8809  167.6572 C.ar    1  UNL1        0.0102
     31 C         140.3015  142.6980  169.1381 C.ar    1  UNL1        0.0576
     32 CL        140.3479  143.8884  170.0496 Cl      1  UNL1       -0.0823
     33 C         140.1024  141.3247  169.7076 C.ar    1  UNL1        0.0145
     34 C         140.0560  140.1342  168.7962 C.ar    1  UNL1        0.0374
     35 C         140.2087  140.3172  167.3152 C.ar    1  UNL1        0.1343
     36 O         140.2055  139.3396  166.1775 O.3     1  UNL1       -0.4825
@<TRIPOS>BOND
     1    14    15    1
     2    15    16   am
     3    16    17    2
     4    16    18   am
     5    18     6    1
     6     6     7   ar
     7     7     8   ar
     8     8     9   ar
     9     9    10    1
    10     9    11   ar
    11    11    12   ar
    12    12     5    1
    13     5     4    1
    14     4     1    1
    15     1     2    1
    16     1    21    1
    17    21    22    1
    18    22    23    1
    19    23    24    1
    20    24    25    1
    21    25    26    1
    22    26    27    1
    23    25    28    1
    24    28    29    1
    25    29    30   ar
    26    30    31   ar
    27    31    32    1
    28    31    33   ar
    29    33    34   ar
    30    34    35   ar
    31    35    36    1
    32    12     6   ar
    33    27    22    1
    34    35    29   ar
    35    36    25    1
    36    15    19    1
    37    18    20    1
    38    10    13    1
    39     2     3    1
@<TRIPOS>MOLECULE
*****
 36 39 0 0 0
SMALL
GASTEIGER

@<TRIPOS>ATOM
      1 C         140.7201  138.9069  159.9443 C.3     1  UNL1        0.1700
      2 O         141.4584  139.6536  158.8731 O.3     1  UNL1       -0.3793
      3 H         140.8349  139.9297  158.1832 H       1  UNL1        0.2106
      4 C         139.2394  138.6973  159.8279 C.3     1  UNL1        0.2358
      5 O         138.3161  139.8785  159.7802 O.3     1  UNL1       -0.4714
      6 C         138.2136  142.2393  160.8600 C.ar    1  UNL1        0.0861
      7 C         138.0432  143.1074  162.0714 C.ar    1  UNL1        0.0209
      8 C         137.8050  142.4829  163.4142 C.ar    1  UNL1        0.0381
      9 C         137.7371  140.9902  163.5457 C.ar    1  UNL1        0.1368
     10 O         137.4989  140.3656  164.8885 O.3     1  UNL1       -0.5054
     11 C         137.9075  140.1221  162.3344 C.ar    1  UNL1        0.0747
     12 C         138.1457  140.7466  160.9915 C.ar    1  UNL1        0.1550
     13 H         137.3924  140.9079  165.6451 H       1  UNL1        0.2922
     14 C         141.4782  143.6837  157.0844 C.3     1  UNL1        0.1122
     15 N         140.0842  143.5860  157.6294 N.am    1  UNL1       -0.2869
     16 C         139.8459  142.9615  158.9722 C.2     1  UNL1        0.3046
     17 O         141.0017  142.4346  159.7699 O.2     1  UNL1       -0.2525
     18 N         138.4519  142.8638  159.5172 N.am    1  UNL1       -0.2658
     19 H         139.3256  143.9319  157.1058 H       1  UNL1        0.1510
     20 H         137.6933  143.2097  158.9936 H       1  UNL1        0.1565
     21 C         141.4626  138.3699  161.1319 C.3     1  UNL1        0.1056
     22 N         141.2287  138.9587  162.4916 N.3     1  UNL1       -0.2703
     23 C         140.7179  138.0938  163.6057 C.3     1  UNL1        0.0758
     24 C         140.4841  138.6826  164.9653 C.3     1  UNL1        0.0577
     25 C         140.7611  140.1362  165.2109 C.3     1  UNL1        0.1399
     26 C         141.2719  141.0010  164.0969 C.3     1  UNL1        0.0577
     27 C         141.5057  140.4123  162.7373 C.3     1  UNL1        0.0758
     28 C         140.9917  141.5652  165.6045 C.3     1  UNL1        0.0695
     29 C         140.6287  141.7115  167.0526 C.ar    1  UNL1        0.0161
     30 C         140.6536  142.8906  167.9794 C.ar    1  UNL1        0.0102
     31 C         140.2237  142.7312  169.4076 C.ar    1  UNL1        0.0576
     32 CL        140.2486  143.9103  170.3345 Cl      1  UNL1       -0.0823
     33 C         139.7689  141.3927  169.9090 C.ar    1  UNL1        0.0145
     34 C         139.7440  140.2135  168.9822 C.ar    1  UNL1        0.0374
     35 C         140.1739  140.3729  167.5540 C.ar    1  UNL1        0.1343
     36 O         140.2557  139.3993  166.4158 O.3     1  UNL1       -0.4825
@<TRIPOS>BOND
     1    14    15    1
     2    15    16   am
     3    16    17    2
     4    16    18   am
     5    18     6    1
     6     6     7   ar
     7     7     8   ar
     8     8     9   ar
     9     9    10    1
    10     9    11   ar
    11    11    12   ar
    12    12     5    1
    13     5     4    1
    14     4     1    1
    15     1     2    1
    16     1    21    1
    17    21    22    1
    18    22    23    1
    19    23    24    1
    20    24    25    1
    21    25    26    1
    22    26    27    1
    23    25    28    1
    24    28    29    1
    25    29    30   ar
    26    30    31   ar
    27    31    32    1
    28    31    33   ar
    29    33    34   ar
    30    34    35   ar
    31    35    36    1
    32    12     6   ar
    33    27    22    1
    34    35    29   ar
    35    36    25    1
    36    15    19    1
    37    18    20    1
    38    10    13    1
    39     2     3    1
@<TRIPOS>MOLECULE
*****
 36 39 0 0 0
SMALL
GASTEIGER

@<TRIPOS>ATOM
      1 C         138.0091  140.2950  160.7273 C.3     1  UNL1        0.1700
      2 O         136.5793  139.9067  160.4931 O.3     1  UNL1       -0.3793
      3 H         136.1522  140.5701  159.9289 H       1  UNL1        0.2106
      4 C         138.5552  141.5506  160.1146 C.3     1  UNL1        0.2358
      5 O         138.1152  142.8891  160.6291 O.3     1  UNL1       -0.4714
      6 C         140.1400  143.6054  162.0908 C.ar    1  UNL1        0.0861
      7 C         140.6868  144.1277  163.3864 C.ar    1  UNL1        0.0209
      8 C         139.7555  144.4558  164.5155 C.ar    1  UNL1        0.0381
      9 C         138.2775  144.2617  164.3492 C.ar    1  UNL1        0.1368
     10 O         137.3462  144.5898  165.4784 O.3     1  UNL1       -0.5054
     11 C         137.7307  143.7395  163.0538 C.ar    1  UNL1        0.0747
     12 C         138.6620  143.4113  161.9245 C.ar    1  UNL1        0.1550
     13 H         137.6877  144.9160  166.2876 H       1  UNL1        0.2922
     14 C         142.3735  144.8958  157.5802 C.3     1  UNL1        0.1122
     15 N         142.1880  143.9225  158.7064 N.am    1  UNL1       -0.2869
     16 C         141.2567  144.2506  159.8355 C.2     1  UNL1        0.3046
     17 O         140.5109  145.5520  159.8384 O.2     1  UNL1       -0.2525
     18 N         141.0713  143.2773  160.9617 N.am    1  UNL1       -0.2658
     19 H         142.6775  143.0683  158.7044 H       1  UNL1        0.1510
     20 H         141.5608  142.4232  160.9597 H       1  UNL1        0.1565
     21 C         138.8927  139.4279  161.5742 C.3     1  UNL1        0.1056
     22 N         139.4257  139.9461  162.8770 N.3     1  UNL1       -0.2703
     23 C         138.4808  140.2931  163.9891 C.3     1  UNL1        0.0758
     24 C         139.0139  140.8113  165.2919 C.3     1  UNL1        0.0577
     25 C         140.4918  140.9824  165.4826 C.3     1  UNL1        0.1399
     26 C         141.4367  140.6354  164.3706 C.3     1  UNL1        0.0577
     27 C         140.9037  140.1173  163.0678 C.3     1  UNL1        0.0758
     28 C         141.9368  141.2048  165.8181 C.3     1  UNL1        0.0695
     29 C         142.0115  141.7291  167.2216 C.ar    1  UNL1        0.0161
     30 C         143.1725  142.1270  168.0839 C.ar    1  UNL1        0.0102
     31 C         142.9347  142.6266  169.4782 C.ar    1  UNL1        0.0576
     32 CL        144.0957  143.0245  170.3405 Cl      1  UNL1       -0.0823
     33 C         141.5359  142.7281  170.0101 C.ar    1  UNL1        0.0145
     34 C         140.3748  142.3301  169.1478 C.ar    1  UNL1        0.0374
     35 C         140.6126  141.8306  167.7535 C.ar    1  UNL1        0.1343
     36 O         139.6734  141.3692  166.6788 O.3     1  UNL1       -0.4825
@<TRIPOS>BOND
     1    14    15    1
     2    15    16   am
     3    16    17    2
     4    16    18   am
     5    18     6    1
     6     6     7   ar
     7     7     8   ar
     8     8     9   ar
     9     9    10    1
    10     9    11   ar
    11    11    12   ar
    12    12     5    1
    13     5     4    1
    14     4     1    1
    15     1     2    1
    16     1    21    1
    17    21    22    1
    18    22    23    1
    19    23    24    1
    20    24    25    1
    21    25    26    1
    22    26    27    1
    23    25    28    1
    24    28    29    1
    25    29    30   ar
    26    30    31   ar
    27    31    32    1
    28    31    33   ar
    29    33    34   ar
    30    34    35   ar
    31    35    36    1
    32    12     6   ar
    33    27    22    1
    34    35    29   ar
    35    36    25    1
    36    15    19    1
    37    18    20    1
    38    10    13    1
    39     2     3    1
@<TRIPOS>MOLECULE
*****
 36 39 0 0 0
SMALL
GASTEIGER

@<TRIPOS>ATOM
      1 C         138.2084  140.2608  160.1088 C.3     1  UNL1        0.1700
      2 O         138.2396  139.8059  158.6797 O.3     1  UNL1       -0.3793
      3 H         138.4446  140.5598  158.1048 H       1  UNL1        0.2106
      4 C         138.4743  141.6985  160.4441 C.3     1  UNL1        0.2358
      5 O         139.8852  142.2011  160.5253 O.3     1  UNL1       -0.4714
      6 C         140.2528  144.5948  161.4660 C.ar    1  UNL1        0.0861
      7 C         140.6629  145.5003  162.5895 C.ar    1  UNL1        0.0209
      8 C         141.1156  144.9175  163.8954 C.ar    1  UNL1        0.0381
      9 C         141.1581  143.4293  164.0780 C.ar    1  UNL1        0.1368
     10 O         141.6107  142.8465  165.3839 O.3     1  UNL1       -0.5054
     11 C         140.7480  142.5238  162.9546 C.ar    1  UNL1        0.0747
     12 C         140.2953  143.1066  161.6486 C.ar    1  UNL1        0.1550
     13 H         141.8669  143.4121  166.0856 H       1  UNL1        0.2922
     14 C         141.2923  146.0557  156.5891 C.3     1  UNL1        0.1122
     15 N         140.3199  145.9080  157.7216 N.am    1  UNL1       -0.2869
     16 C         140.7725  145.3253  159.0276 C.2     1  UNL1        0.3046
     17 O         142.1975  144.8902  159.2009 O.2     1  UNL1       -0.2525
     18 N         139.8002  145.1776  160.1601 N.am    1  UNL1       -0.2658
     19 H         139.3846  146.1936  157.6079 H       1  UNL1        0.1510
     20 H         138.8649  145.4632  160.0463 H       1  UNL1        0.1565
     21 C         137.9112  139.2782  161.2024 C.3     1  UNL1        0.1056
     22 N         138.5600  139.4324  162.5460 N.3     1  UNL1       -0.2703
     23 C         139.9443  138.9024  162.7757 C.3     1  UNL1        0.0758
     24 C         140.5931  139.0566  164.1193 C.3     1  UNL1        0.0577
     25 C         139.8576  139.7409  165.2332 C.3     1  UNL1        0.1399
     26 C         138.4733  140.2710  165.0035 C.3     1  UNL1        0.0577
     27 C         137.8245  140.1167  163.6599 C.3     1  UNL1        0.0758
     28 C         139.2488  140.3988  166.4359 C.3     1  UNL1        0.0695
     29 C         140.2441  140.3289  167.5561 C.ar    1  UNL1        0.0161
     30 C         140.1940  140.8130  168.9749 C.ar    1  UNL1        0.0102
     31 C         141.3678  140.5960  169.8833 C.ar    1  UNL1        0.0576
     32 CL        141.3178  141.0801  171.3021 Cl      1  UNL1       -0.0823
     33 C         142.5917  139.8949  169.3728 C.ar    1  UNL1        0.0145
     34 C         142.6418  139.4108  167.9539 C.ar    1  UNL1        0.0374
     35 C         141.4680  139.6277  167.0456 C.ar    1  UNL1        0.1343
     36 O         141.2291  139.2644  165.6100 O.3     1  UNL1       -0.4825
@<TRIPOS>BOND
     1    14    15    1
     2    15    16   am
     3    16    17    2
     4    16    18   am
     5    18     6    1
     6     6     7   ar
     7     7     8   ar
     8     8     9   ar
     9     9    10    1
    10     9    11   ar
    11    11    12   ar
    12    12     5    1
    13     5     4    1
    14     4     1    1
    15     1     2    1
    16     1    21    1
    17    21    22    1
    18    22    23    1
    19    23    24    1
    20    24    25    1
    21    25    26    1
    22    26    27    1
    23    25    28    1
    24    28    29    1
    25    29    30   ar
    26    30    31   ar
    27    31    32    1
    28    31    33   ar
    29    33    34   ar
    30    34    35   ar
    31    35    36    1
    32    12     6   ar
    33    27    22    1
    34    35    29   ar
    35    36    25    1
    36    15    19    1
    37    18    20    1
    38    10    13    1
    39     2     3    1
@<TRIPOS>MOLECULE
*****
 36 39 0 0 0
SMALL
GASTEIGER

@<TRIPOS>ATOM
      1 C         143.4257  139.4882  159.6963 C.3     1  UNL1        0.1700
      2 O         144.2554  139.9459  158.5335 O.3     1  UNL1       -0.3793
      3 H         143.6809  140.3554  157.8677 H       1  UNL1        0.2106
      4 C         141.9408  139.7008  159.6881 C.3     1  UNL1        0.2358
      5 O         141.3277  140.7446  160.5738 O.3     1  UNL1       -0.4714
      6 C         140.1257  141.3013  162.8088 C.ar    1  UNL1        0.0861
      7 C         139.2231  140.8930  163.9352 C.ar    1  UNL1        0.0209
      8 C         138.6200  139.5197  163.9529 C.ar    1  UNL1        0.0381
      9 C         138.9195  138.5547  162.8443 C.ar    1  UNL1        0.1368
     10 O         138.3164  137.1814  162.8620 O.3     1  UNL1       -0.5054
     11 C         139.8220  138.9630  161.7179 C.ar    1  UNL1        0.0747
     12 C         140.4252  140.3363  161.7002 C.ar    1  UNL1        0.1550
     13 H         137.7526  136.9264  163.5656 H       1  UNL1        0.2922
     14 C         139.7360  146.3739  161.7522 C.3     1  UNL1        0.1122
     15 N         140.5339  145.2109  162.2628 N.am    1  UNL1       -0.2869
     16 C         139.9309  143.8376  162.2805 C.2     1  UNL1        0.3046
     17 O         138.5299  143.6274  161.7876 O.2     1  UNL1       -0.2525
     18 N         140.7288  142.6746  162.7911 N.am    1  UNL1       -0.2658
     19 H         141.4535  145.3489  162.5863 H       1  UNL1        0.1510
     20 H         141.6483  142.8126  163.1146 H       1  UNL1        0.1565
     21 C         144.0809  138.8179  160.8674 C.3     1  UNL1        0.1056
     22 N         143.7362  139.2427  162.2641 N.3     1  UNL1       -0.2703
     23 C         144.2154  140.5649  162.7857 C.3     1  UNL1        0.0758
     24 C         143.8707  140.9897  164.1824 C.3     1  UNL1        0.0577
     25 C         143.0467  140.0922  165.0574 C.3     1  UNL1        0.1399
     26 C         142.5675  138.7701  164.5358 C.3     1  UNL1        0.0577
     27 C         142.9122  138.3453  163.1392 C.3     1  UNL1        0.0758
     28 C         142.2354  139.3051  166.0435 C.3     1  UNL1        0.0695
     29 C         142.1400  140.1052  167.3088 C.ar    1  UNL1        0.0161
     30 C         141.4653  139.8323  168.6204 C.ar    1  UNL1        0.0102
     31 C         141.5430  140.8409  169.7279 C.ar    1  UNL1        0.0576
     32 CL        140.8682  140.5680  171.0395 Cl      1  UNL1       -0.0823
     33 C         142.2954  142.1224  169.5239 C.ar    1  UNL1        0.0145
     34 C         142.9701  142.3953  168.2123 C.ar    1  UNL1        0.0374
     35 C         142.8925  141.3867  167.1047 C.ar    1  UNL1        0.1343
     36 O         143.4528  141.3787  165.7134 O.3     1  UNL1       -0.4825
@<TRIPOS>BOND
     1    14    15    1
     2    15    16   am
     3    16    17    2
     4    16    18   am
     5    18     6    1
     6     6     7   ar
     7     7     8   ar
     8     8     9   ar
     9     9    10    1
    10     9    11   ar
    11    11    12   ar
    12    12     5    1
    13     5     4    1
    14     4     1    1
    15     1     2    1
    16     1    21    1
    17    21    22    1
    18    22    23    1
    19    23    24    1
    20    24    25    1
    21    25    26    1
    22    26    27    1
    23    25    28    1
    24    28    29    1
    25    29    30   ar
    26    30    31   ar
    27    31    32    1
    28    31    33   ar
    29    33    34   ar
    30    34    35   ar
    31    35    36    1
    32    12     6   ar
    33    27    22    1
    34    35    29   ar
    35    36    25    1
    36    15    19    1
    37    18    20    1
    38    10    13    1
    39     2     3    1
@<TRIPOS>MOLECULE
*****
 36 39 0 0 0
SMALL
GASTEIGER

@<TRIPOS>ATOM
      1 C         140.6819  145.0187  160.2664 C.3     1  UNL1        0.1700
      2 O         141.8572  145.5825  159.5243 O.3     1  UNL1       -0.3793
      3 H         141.9348  145.1457  158.6617 H       1  UNL1        0.2106
      4 C         139.8445  143.9436  159.6393 C.3     1  UNL1        0.2358
      5 O         140.2920  142.5132  159.6997 O.3     1  UNL1       -0.4714
      6 C         140.4215  140.3073  161.0661 C.ar    1  UNL1        0.0861
      7 C         139.8502  139.3859  162.1028 C.ar    1  UNL1        0.0209
      8 C         138.5781  139.7492  162.8098 C.ar    1  UNL1        0.0381
      9 C         137.8773  141.0338  162.4801 C.ar    1  UNL1        0.1368
     10 O         136.6053  141.3970  163.1871 O.3     1  UNL1       -0.5054
     11 C         138.4486  141.9551  161.4434 C.ar    1  UNL1        0.0747
     12 C         139.7208  141.5919  160.7364 C.ar    1  UNL1        0.1550
     13 H         136.2484  140.8215  163.8346 H       1  UNL1        0.2922
     14 C         142.9046  137.6661  157.3434 C.3     1  UNL1        0.1122
     15 N         142.9351  138.6234  158.4978 N.am    1  UNL1       -0.2869
     16 C         141.6630  138.9867  159.2047 C.2     1  UNL1        0.3046
     17 O         140.3604  138.3926  158.7574 O.2     1  UNL1       -0.2525
     18 N         141.6936  139.9440  160.3591 N.am    1  UNL1       -0.2658
     19 H         143.7901  139.0134  158.7914 H       1  UNL1        0.1510
     20 H         142.5486  140.3340  160.6527 H       1  UNL1        0.1565
     21 C         140.3439  145.5298  161.6355 C.3     1  UNL1        0.1056
     22 N         140.5266  144.6447  162.8327 N.3     1  UNL1       -0.2703
     23 C         141.7058  143.7209  162.9096 C.3     1  UNL1        0.0758
     24 C         141.8884  142.8359  164.1068 C.3     1  UNL1        0.0577
     25 C         140.8918  142.8746  165.2271 C.3     1  UNL1        0.1399
     26 C         139.7125  143.7984  165.1503 C.3     1  UNL1        0.0577
     27 C         139.5299  144.6834  163.9531 C.3     1  UNL1        0.0758
     28 C         139.9828  142.8040  166.4183 C.3     1  UNL1        0.0695
     29 C         140.5447  141.7905  167.3708 C.ar    1  UNL1        0.0161
     30 C         140.0748  141.3019  168.7088 C.ar    1  UNL1        0.0102
     31 C         140.8611  140.2576  169.4444 C.ar    1  UNL1        0.0576
     32 CL        140.3912  139.7690  170.7824 Cl      1  UNL1       -0.0823
     33 C         142.1174  139.7018  168.8420 C.ar    1  UNL1        0.0145
     34 C         142.5874  140.1905  167.5039 C.ar    1  UNL1        0.0374
     35 C         141.8011  141.2348  166.7683 C.ar    1  UNL1        0.1343
     36 O         142.0155  141.9048  165.4435 O.3     1  UNL1       -0.4825
@<TRIPOS>BOND
     1    14    15    1
     2    15    16   am
     3    16    17    2
     4    16    18   am
     5    18     6    1
     6     6     7   ar
     7     7     8   ar
     8     8     9   ar
     9     9    10    1
    10     9    11   ar
    11    11    12   ar
    12    12     5    1
    13     5     4    1
    14     4     1    1
    15     1     2    1
    16     1    21    1
    17    21    22    1
    18    22    23    1
    19    23    24    1
    20    24    25    1
    21    25    26    1
    22    26    27    1
    23    25    28    1
    24    28    29    1
    25    29    30   ar
    26    30    31   ar
    27    31    32    1
    28    31    33   ar
    29    33    34   ar
    30    34    35   ar
    31    35    36    1
    32    12     6   ar
    33    27    22    1
    34    35    29   ar
    35    36    25    1
    36    15    19    1
    37    18    20    1
    38    10    13    1
    39     2     3    1
