@<TRIPOS>MOLECULE
*****
 36 39 0 0 0
SMALL
GASTEIGER

@<TRIPOS>ATOM
      1 C         141.2090  139.4095  157.8458 C.ar    1  UNL1        0.0587
      2 C         140.1222  138.5190  157.3205 C.ar    1  UNL1        0.0166
      3 C         140.4739  137.2456  156.6099 C.ar    1  UNL1        0.0160
      4 C         141.9124  136.8628  156.4247 C.ar    1  UNL1        0.0512
      5 C         142.9991  137.7534  156.9500 C.ar    1  UNL1        0.0273
      6 C         142.6474  139.0267  157.6605 C.ar    1  UNL1        0.0722
      7 CL        143.7343  139.9173  158.1858 Cl      1  UNL1       -0.0809
      8 C         139.8022  144.5029  160.6880 C.2     1  UNL1        0.2699
      9 O         139.7883  145.8015  159.9373 O.2     1  UNL1       -0.2681
     10 N         140.1539  143.2296  159.9775 N.am    1  UNL1       -0.2713
     11 C         140.1679  141.9310  160.7282 C.3     1  UNL1        0.1152
     12 C         140.5196  140.6577  160.0177 C.3     1  UNL1        0.1124
     13 N         140.8573  140.6829  158.5563 N.pl3   1  UNL1       -0.3034
     14 C         140.8434  141.9814  157.8057 C.3     1  UNL1        0.1124
     15 C         140.4917  143.2548  158.5162 C.3     1  UNL1        0.1152
     16 C         140.5416  144.6885  163.1718 C.ar    1  UNL1        0.1607
     17 C         140.2038  144.6632  164.6330 C.ar    1  UNL1        0.0402
     18 C         138.7890  144.4272  165.0718 C.ar    1  UNL1        0.0238
     19 C         137.7119  144.2164  164.0494 C.ar    1  UNL1        0.0992
     20 N         138.0497  144.2417  162.5881 N.ar    1  UNL1       -0.2362
     21 C         139.4645  144.4777  162.1493 C.ar    1  UNL1        0.1684
     22 C         143.0369  145.1156  163.7557 C.3     1  UNL1        0.2525
     23 O         141.9564  144.9245  162.7330 O.3     1  UNL1       -0.4698
     24 N         142.2641  135.5895  155.7141 N.am    1  UNL1       -0.2837
     25 C         142.9834  134.4958  156.4467 C.2     1  UNL1        0.2290
     26 O         143.3509  134.6756  157.8898 O.2     1  UNL1       -0.2745
     27 H         142.0229  135.4715  154.7669 H       1  UNL1        0.1549
     28 C         143.3351  133.2225  155.7362 C.3     1  UNL1        0.0879
     29 C         144.0024  132.7131  156.9793 C.3     1  UNL1        0.0135
     30 C         142.6678  133.7319  154.4931 C.3     1  UNL1        0.0135
     31 C         143.6868  131.9492  155.0256 C.ar    1  UNL1       -0.0146
     32 C         144.5430  130.9225  155.7059 C.ar    1  UNL1       -0.0038
     33 C         144.8947  129.6492  154.9954 C.ar    1  UNL1       -0.0003
     34 C         144.3902  129.4025  153.6045 C.ar    1  UNL1       -0.0000
     35 C         143.5340  130.4291  152.9241 C.ar    1  UNL1       -0.0003
     36 C         143.1823  131.7025  153.6347 C.ar    1  UNL1       -0.0038
@<TRIPOS>BOND
     1    22    23    1
     2    23    16    1
     3    16    17   ar
     4    17    18   ar
     5    18    19   ar
     6    19    20   ar
     7    20    21   ar
     8    21     8    1
     9     8     9    2
    10     8    10   am
    11    10    11    1
    12    11    12    1
    13    12    13    1
    14    13     1    1
    15     1     2   ar
    16     2     3   ar
    17     3     4   ar
    18     4    24    1
    19    24    25   am
    20    25    26    2
    21    25    28    1
    22    28    29    1
    23    28    30    1
    24    28    31    1
    25    31    32   ar
    26    32    33   ar
    27    33    34   ar
    28    34    35   ar
    29    35    36   ar
    30     4     5   ar
    31     5     6   ar
    32     6     7    1
    33    13    14    1
    34    14    15    1
    35    21    16   ar
    36    15    10    1
    37     6     1   ar
    38    36    31   ar
    39    24    27    1
@<TRIPOS>MOLECULE
*****
 36 39 0 0 0
SMALL
GASTEIGER

@<TRIPOS>ATOM
      1 C         143.9185  141.7818  160.2879 C.ar    1  UNL1        0.0587
      2 C         144.4750  140.9323  161.3919 C.ar    1  UNL1        0.0166
      3 C         143.9797  141.1092  162.7967 C.ar    1  UNL1        0.0160
      4 C         142.9279  142.1355  163.0975 C.ar    1  UNL1        0.0512
      5 C         142.3714  142.9849  161.9935 C.ar    1  UNL1        0.0273
      6 C         142.8667  142.8081  160.5887 C.ar    1  UNL1        0.0722
      7 CL        142.3102  143.6576  159.4847 Cl      1  UNL1       -0.0809
      8 C         145.8996  141.0744  154.6688 C.2     1  UNL1        0.2699
      9 O         145.3275  139.9918  153.8025 O.2     1  UNL1       -0.2681
     10 N         145.4044  141.2513  156.0736 N.am    1  UNL1       -0.2713
     11 C         145.9766  142.3340  156.9399 C.3     1  UNL1        0.1152
     12 C         145.4813  142.5108  158.3447 C.3     1  UNL1        0.1124
     13 N         144.4138  141.6050  158.8831 N.pl3   1  UNL1       -0.3034
     14 C         143.8416  140.5223  158.0169 C.3     1  UNL1        0.1124
     15 C         144.3369  140.3455  156.6121 C.3     1  UNL1        0.1152
     16 C         146.5904  143.2709  153.4653 C.ar    1  UNL1        0.1607
     17 C         147.6579  144.1767  152.9269 C.ar    1  UNL1        0.0402
     18 C         149.1022  143.7918  153.0534 C.ar    1  UNL1        0.0238
     19 C         149.4789  142.5012  153.7184 C.ar    1  UNL1        0.0992
     20 N         148.4114  141.5954  154.2569 N.ar    1  UNL1       -0.2362
     21 C         146.9672  141.9803  154.1303 C.ar    1  UNL1        0.1684
     22 C         144.7739  145.0024  152.7930 C.3     1  UNL1        0.2525
     23 O         145.1462  143.6558  153.3388 O.3     1  UNL1       -0.4698
     24 N         142.4326  142.3124  164.5023 N.am    1  UNL1       -0.2837
     25 C         141.4220  141.3583  165.0669 C.2     1  UNL1        0.2290
     26 O         140.9069  140.2275  164.2268 O.2     1  UNL1       -0.2745
     27 H         142.7707  143.0546  165.0537 H       1  UNL1        0.1549
     28 C         140.9268  141.5352  166.4717 C.3     1  UNL1        0.0879
     29 C         139.6345  140.8705  166.0998 C.3     1  UNL1        0.0135
     30 C         142.2190  142.1999  166.8436 C.3     1  UNL1        0.0135
     31 C         140.4315  141.7120  167.8765 C.ar    1  UNL1       -0.0146
     32 C         140.6537  143.0114  168.5921 C.ar    1  UNL1       -0.0038
     33 C         140.1584  143.1883  169.9969 C.ar    1  UNL1       -0.0003
     34 C         139.4409  142.0657  170.6860 C.ar    1  UNL1       -0.0000
     35 C         139.2186  140.7662  169.9704 C.ar    1  UNL1       -0.0003
     36 C         139.7139  140.5894  168.5656 C.ar    1  UNL1       -0.0038
@<TRIPOS>BOND
     1    22    23    1
     2    23    16    1
     3    16    17   ar
     4    17    18   ar
     5    18    19   ar
     6    19    20   ar
     7    20    21   ar
     8    21     8    1
     9     8     9    2
    10     8    10   am
    11    10    11    1
    12    11    12    1
    13    12    13    1
    14    13     1    1
    15     1     2   ar
    16     2     3   ar
    17     3     4   ar
    18     4    24    1
    19    24    25   am
    20    25    26    2
    21    25    28    1
    22    28    29    1
    23    28    30    1
    24    28    31    1
    25    31    32   ar
    26    32    33   ar
    27    33    34   ar
    28    34    35   ar
    29    35    36   ar
    30     4     5   ar
    31     5     6   ar
    32     6     7    1
    33    13    14    1
    34    14    15    1
    35    21    16   ar
    36    15    10    1
    37     6     1   ar
    38    36    31   ar
    39    24    27    1
@<TRIPOS>MOLECULE
*****
 36 39 0 0 0
SMALL
GASTEIGER

@<TRIPOS>ATOM
      1 C         143.1569  141.0832  160.0878 C.ar    1  UNL1        0.0587
      2 C         144.0057  140.5993  161.2260 C.ar    1  UNL1        0.0166
      3 C         143.4440  140.5594  162.6163 C.ar    1  UNL1        0.0160
      4 C         142.0335  141.0033  162.8684 C.ar    1  UNL1        0.0512
      5 C         141.1848  141.4872  161.7302 C.ar    1  UNL1        0.0273
      6 C         141.7464  141.5271  160.3399 C.ar    1  UNL1        0.0722
      7 CL        140.8976  142.0111  159.2017 Cl      1  UNL1       -0.0809
      8 C         145.4035  141.2430  154.5266 C.2     1  UNL1        0.2699
      9 O         145.2874  140.0416  153.6360 O.2     1  UNL1       -0.2681
     10 N         144.8418  141.2031  155.9169 N.am    1  UNL1       -0.2713
     11 C         144.9579  142.4045  156.8075 C.3     1  UNL1        0.1152
     12 C         144.3963  142.3646  158.1978 C.3     1  UNL1        0.1124
     13 N         143.7185  141.1232  158.6975 N.pl3   1  UNL1       -0.3034
     14 C         143.6025  139.9218  157.8069 C.3     1  UNL1        0.1124
     15 C         144.1641  139.9617  156.4166 C.3     1  UNL1        0.1152
     16 C         147.5737  142.6094  154.1101 C.ar    1  UNL1        0.1607
     17 C         148.2513  143.8508  153.6105 C.ar    1  UNL1        0.0402
     18 C         147.4366  144.9672  153.0275 C.ar    1  UNL1        0.0238
     19 C         145.9441  144.8422  152.9442 C.ar    1  UNL1        0.0992
     20 N         145.2665  143.6008  153.4439 N.ar    1  UNL1       -0.2362
     21 C         146.0812  142.4844  154.0268 C.ar    1  UNL1        0.1684
     22 C         149.8287  141.7203  155.0452 C.3     1  UNL1        0.2525
     23 O         148.3884  141.4930  154.6931 O.3     1  UNL1       -0.4698
     24 N         141.4719  140.9634  164.2587 N.am    1  UNL1       -0.2837
     25 C         141.6699  142.1294  165.1814 C.2     1  UNL1        0.2290
     26 O         142.4296  143.3353  164.7137 O.2     1  UNL1       -0.2745
     27 H         140.9733  140.1719  164.5656 H       1  UNL1        0.1549
     28 C         141.1083  142.0895  166.5717 C.3     1  UNL1        0.0879
     29 C         142.3124  141.3250  167.0361 C.3     1  UNL1        0.0135
     30 C         139.9042  142.8539  166.1072 C.3     1  UNL1        0.0135
     31 C         140.5466  142.0495  167.9620 C.ar    1  UNL1       -0.0146
     32 C         140.6523  143.2548  168.8485 C.ar    1  UNL1       -0.0038
     33 C         140.0907  143.2149  170.2388 C.ar    1  UNL1       -0.0003
     34 C         139.4233  141.9696  170.7426 C.ar    1  UNL1       -0.0000
     35 C         139.3175  140.7642  169.8560 C.ar    1  UNL1       -0.0003
     36 C         139.8792  140.8041  168.4657 C.ar    1  UNL1       -0.0038
@<TRIPOS>BOND
     1    22    23    1
     2    23    16    1
     3    16    17   ar
     4    17    18   ar
     5    18    19   ar
     6    19    20   ar
     7    20    21   ar
     8    21     8    1
     9     8     9    2
    10     8    10   am
    11    10    11    1
    12    11    12    1
    13    12    13    1
    14    13     1    1
    15     1     2   ar
    16     2     3   ar
    17     3     4   ar
    18     4    24    1
    19    24    25   am
    20    25    26    2
    21    25    28    1
    22    28    29    1
    23    28    30    1
    24    28    31    1
    25    31    32   ar
    26    32    33   ar
    27    33    34   ar
    28    34    35   ar
    29    35    36   ar
    30     4     5   ar
    31     5     6   ar
    32     6     7    1
    33    13    14    1
    34    14    15    1
    35    21    16   ar
    36    15    10    1
    37     6     1   ar
    38    36    31   ar
    39    24    27    1
@<TRIPOS>MOLECULE
*****
 36 39 0 0 0
SMALL
GASTEIGER

@<TRIPOS>ATOM
      1 C         141.8574  138.1673  156.5950 C.ar    1  UNL1        0.0587
      2 C         143.3261  137.9211  156.4152 C.ar    1  UNL1        0.0166
      3 C         143.8045  136.6141  155.8558 C.ar    1  UNL1        0.0160
      4 C         142.8141  135.5534  155.4761 C.ar    1  UNL1        0.0512
      5 C         141.3455  135.7996  155.6559 C.ar    1  UNL1        0.0273
      6 C         140.8671  137.1066  156.2153 C.ar    1  UNL1        0.0722
      7 CL        139.3983  137.3529  156.3951 Cl      1  UNL1       -0.0809
      8 C         139.9439  143.3952  158.8328 C.2     1  UNL1        0.2699
      9 O         139.7330  144.5685  157.9223 O.2     1  UNL1       -0.2681
     10 N         140.4223  142.0883  158.2733 N.am    1  UNL1       -0.2713
     11 C         140.6332  140.9150  159.1838 C.3     1  UNL1        0.1152
     12 C         141.1116  139.6080  158.6244 C.3     1  UNL1        0.1124
     13 N         141.3790  139.4743  157.1544 N.pl3   1  UNL1       -0.3034
     14 C         141.1681  140.6476  156.2440 C.3     1  UNL1        0.1124
     15 C         140.6897  141.9545  156.8035 C.3     1  UNL1        0.1152
     16 C         140.7631  144.0008  161.2228 C.ar    1  UNL1        0.1607
     17 C         140.4956  144.1345  162.6927 C.ar    1  UNL1        0.0402
     18 C         139.1416  143.7962  163.2425 C.ar    1  UNL1        0.0238
     19 C         138.0550  143.3243  162.3223 C.ar    1  UNL1        0.0992
     20 N         138.3225  143.1907  160.8525 N.ar    1  UNL1       -0.2362
     21 C         139.6765  143.5289  160.3027 C.ar    1  UNL1        0.1684
     22 C         143.2054  143.3068  160.6721 C.3     1  UNL1        0.2525
     23 O         142.1171  144.3390  160.6731 O.3     1  UNL1       -0.4698
     24 N         143.2925  134.2464  154.9167 N.am    1  UNL1       -0.2837
     25 C         143.3503  133.0312  155.7942 C.2     1  UNL1        0.2290
     26 O         142.9297  133.1229  157.2310 O.2     1  UNL1       -0.2745
     27 H         143.5685  134.1861  153.9736 H       1  UNL1        0.1549
     28 C         143.8286  131.7242  155.2347 C.3     1  UNL1        0.0879
     29 C         144.8937  131.6626  156.2892 C.3     1  UNL1        0.0135
     30 C         142.7636  131.7857  154.1803 C.3     1  UNL1        0.0135
     31 C         144.3070  130.4172  154.6753 C.ar    1  UNL1       -0.0146
     32 C         144.2268  130.1586  153.2000 C.ar    1  UNL1       -0.0038
     33 C         144.7051  128.8516  152.6405 C.ar    1  UNL1       -0.0003
     34 C         145.2637  127.8032  153.5564 C.ar    1  UNL1       -0.0000
     35 C         145.3439  128.0618  155.0318 C.ar    1  UNL1       -0.0003
     36 C         144.8656  129.3688  155.5913 C.ar    1  UNL1       -0.0038
@<TRIPOS>BOND
     1    22    23    1
     2    23    16    1
     3    16    17   ar
     4    17    18   ar
     5    18    19   ar
     6    19    20   ar
     7    20    21   ar
     8    21     8    1
     9     8     9    2
    10     8    10   am
    11    10    11    1
    12    11    12    1
    13    12    13    1
    14    13     1    1
    15     1     2   ar
    16     2     3   ar
    17     3     4   ar
    18     4    24    1
    19    24    25   am
    20    25    26    2
    21    25    28    1
    22    28    29    1
    23    28    30    1
    24    28    31    1
    25    31    32   ar
    26    32    33   ar
    27    33    34   ar
    28    34    35   ar
    29    35    36   ar
    30     4     5   ar
    31     5     6   ar
    32     6     7    1
    33    13    14    1
    34    14    15    1
    35    21    16   ar
    36    15    10    1
    37     6     1   ar
    38    36    31   ar
    39    24    27    1
@<TRIPOS>MOLECULE
*****
 36 39 0 0 0
SMALL
GASTEIGER

@<TRIPOS>ATOM
      1 C         139.1304  139.9993  160.0215 C.ar    1  UNL1        0.0587
      2 C         138.1465  139.3808  160.9699 C.ar    1  UNL1        0.0166
      3 C         138.4075  139.4111  162.4467 C.ar    1  UNL1        0.0160
      4 C         139.6525  140.0599  162.9751 C.ar    1  UNL1        0.0512
      5 C         140.6364  140.6784  162.0268 C.ar    1  UNL1        0.0273
      6 C         140.3753  140.6481  160.5500 C.ar    1  UNL1        0.0722
      7 CL        141.3593  141.2666  159.6016 Cl      1  UNL1       -0.0809
      8 C         138.0863  139.8780  154.1143 C.2     1  UNL1        0.2699
      9 O         138.7304  138.8265  153.2603 O.2     1  UNL1       -0.2681
     10 N         138.3473  139.9083  155.5911 N.am    1  UNL1       -0.2713
     11 C         137.7032  140.9599  156.4452 C.3     1  UNL1        0.1152
     12 C         137.9642  140.9902  157.9220 C.3     1  UNL1        0.1124
     13 N         138.8694  139.9690  158.5447 N.pl3   1  UNL1       -0.3034
     14 C         139.5135  138.9175  157.6907 C.3     1  UNL1        0.1124
     15 C         139.2525  138.8871  156.2139 C.3     1  UNL1        0.1152
     16 C         135.6938  140.7109  153.5381 C.ar    1  UNL1        0.1607
     17 C         134.7887  141.7321  152.9154 C.ar    1  UNL1        0.0402
     18 C         135.3709  142.9417  152.2461 C.ar    1  UNL1        0.0238
     19 C         136.8583  143.1300  152.1996 C.ar    1  UNL1        0.0992
     20 N         137.7634  142.1088  152.8223 N.ar    1  UNL1       -0.2362
     21 C         137.1811  140.8992  153.4916 C.ar    1  UNL1        0.1684
     22 C         134.2975  139.6551  155.4579 C.3     1  UNL1        0.2525
     23 O         135.1115  139.5014  154.2074 O.3     1  UNL1       -0.4698
     24 N         139.9135  140.0903  164.4519 N.am    1  UNL1       -0.2837
     25 C         139.7038  141.3587  165.2248 C.2     1  UNL1        0.2290
     26 O         139.2330  142.5967  164.5208 O.2     1  UNL1       -0.2745
     27 H         140.2225  139.2777  164.9140 H       1  UNL1        0.1549
     28 C         139.9648  141.3890  166.7016 C.3     1  UNL1        0.0879
     29 C         140.3317  142.8404  166.6069 C.3     1  UNL1        0.0135
     30 C         139.5979  139.9377  166.7962 C.3     1  UNL1        0.0135
     31 C         140.2258  141.4194  168.1784 C.ar    1  UNL1       -0.0146
     32 C         140.0191  140.1830  169.0021 C.ar    1  UNL1       -0.0038
     33 C         140.2801  140.2133  170.4789 C.ar    1  UNL1       -0.0003
     34 C         140.7479  141.4800  171.1320 C.ar    1  UNL1       -0.0000
     35 C         140.9547  142.7165  170.3082 C.ar    1  UNL1       -0.0003
     36 C         140.6937  142.6862  168.8314 C.ar    1  UNL1       -0.0038
@<TRIPOS>BOND
     1    22    23    1
     2    23    16    1
     3    16    17   ar
     4    17    18   ar
     5    18    19   ar
     6    19    20   ar
     7    20    21   ar
     8    21     8    1
     9     8     9    2
    10     8    10   am
    11    10    11    1
    12    11    12    1
    13    12    13    1
    14    13     1    1
    15     1     2   ar
    16     2     3   ar
    17     3     4   ar
    18     4    24    1
    19    24    25   am
    20    25    26    2
    21    25    28    1
    22    28    29    1
    23    28    30    1
    24    28    31    1
    25    31    32   ar
    26    32    33   ar
    27    33    34   ar
    28    34    35   ar
    29    35    36   ar
    30     4     5   ar
    31     5     6   ar
    32     6     7    1
    33    13    14    1
    34    14    15    1
    35    21    16   ar
    36    15    10    1
    37     6     1   ar
    38    36    31   ar
    39    24    27    1
@<TRIPOS>MOLECULE
*****
 36 39 0 0 0
SMALL
GASTEIGER

@<TRIPOS>ATOM
      1 C         142.4890  139.7417  160.2420 C.ar    1  UNL1        0.0587
      2 C         143.1862  138.9732  161.3253 C.ar    1  UNL1        0.0166
      3 C         143.0391  139.3946  162.7574 C.ar    1  UNL1        0.0160
      4 C         142.1948  140.5845  163.1061 C.ar    1  UNL1        0.0512
      5 C         141.4977  141.3529  162.0228 C.ar    1  UNL1        0.0273
      6 C         141.6448  140.9315  160.5908 C.ar    1  UNL1        0.0722
      7 CL        140.9476  141.6999  159.5075 Cl      1  UNL1       -0.0809
      8 C         143.0773  138.0561  154.5138 C.2     1  UNL1        0.2699
      9 O         143.9943  138.8133  153.5996 O.2     1  UNL1       -0.2681
     10 N         142.9303  138.4775  155.9458 N.am    1  UNL1       -0.2713
     11 C         142.0133  137.7202  156.8601 C.3     1  UNL1        0.1152
     12 C         141.8662  138.1416  158.2921 C.3     1  UNL1        0.1124
     13 N         142.6361  139.3203  158.8100 N.pl3   1  UNL1       -0.3034
     14 C         143.5530  140.0775  157.8957 C.3     1  UNL1        0.1124
     15 C         143.7001  139.6561  156.4637 C.3     1  UNL1        0.1152
     16 C         142.7418  135.4851  154.3465 C.ar    1  UNL1        0.1607
     17 C         141.9719  134.3066  153.8287 C.ar    1  UNL1        0.0402
     18 C         140.7676  134.5202  152.9603 C.ar    1  UNL1        0.0238
     19 C         140.3332  135.9125  152.6098 C.ar    1  UNL1        0.0992
     20 N         141.1031  137.0910  153.1276 N.ar    1  UNL1       -0.2362
     21 C         142.3074  136.8774  153.9960 C.ar    1  UNL1        0.1684
     22 C         143.8141  134.5270  156.5103 C.3     1  UNL1        0.2525
     23 O         143.9461  135.2715  155.2148 O.3     1  UNL1       -0.4698
     24 N         142.0478  141.0059  164.5382 N.am    1  UNL1       -0.2837
     25 C         140.8403  140.5865  165.3232 C.2     1  UNL1        0.2290
     26 O         139.7799  139.7457  164.6761 O.2     1  UNL1       -0.2745
     27 H         142.7437  141.5577  164.9629 H       1  UNL1        0.1549
     28 C         140.6932  141.0079  166.7552 C.3     1  UNL1        0.0879
     29 C         139.7275  139.8837  166.9869 C.3     1  UNL1        0.0135
     30 C         141.6588  142.1321  166.5236 C.3     1  UNL1        0.0135
     31 C         140.5461  141.4293  168.1873 C.ar    1  UNL1       -0.0146
     32 C         140.5160  142.8867  168.5409 C.ar    1  UNL1       -0.0038
     33 C         140.3690  143.3081  169.9730 C.ar    1  UNL1       -0.0003
     34 C         140.2519  142.2721  171.0514 C.ar    1  UNL1       -0.0000
     35 C         140.2820  140.8146  170.6978 C.ar    1  UNL1       -0.0003
     36 C         140.4291  140.3932  169.2657 C.ar    1  UNL1       -0.0038
@<TRIPOS>BOND
     1    22    23    1
     2    23    16    1
     3    16    17   ar
     4    17    18   ar
     5    18    19   ar
     6    19    20   ar
     7    20    21   ar
     8    21     8    1
     9     8     9    2
    10     8    10   am
    11    10    11    1
    12    11    12    1
    13    12    13    1
    14    13     1    1
    15     1     2   ar
    16     2     3   ar
    17     3     4   ar
    18     4    24    1
    19    24    25   am
    20    25    26    2
    21    25    28    1
    22    28    29    1
    23    28    30    1
    24    28    31    1
    25    31    32   ar
    26    32    33   ar
    27    33    34   ar
    28    34    35   ar
    29    35    36   ar
    30     4     5   ar
    31     5     6   ar
    32     6     7    1
    33    13    14    1
    34    14    15    1
    35    21    16   ar
    36    15    10    1
    37     6     1   ar
    38    36    31   ar
    39    24    27    1
@<TRIPOS>MOLECULE
*****
 36 39 0 0 0
SMALL
GASTEIGER

@<TRIPOS>ATOM
      1 C         140.2048  139.6281  162.3392 C.ar    1  UNL1        0.0587
      2 C         138.7867  139.1873  162.1276 C.ar    1  UNL1        0.0166
      3 C         138.1886  139.2194  160.7523 C.ar    1  UNL1        0.0160
      4 C         139.0087  139.6923  159.5887 C.ar    1  UNL1        0.0512
      5 C         140.4267  140.1331  159.8004 C.ar    1  UNL1        0.0273
      6 C         141.0248  140.1010  161.1756 C.ar    1  UNL1        0.0722
      7 CL        142.4429  140.5417  161.3872 Cl      1  UNL1       -0.0809
      8 C         142.5971  139.4996  167.8401 C.2     1  UNL1        0.2699
      9 O         143.4203  138.3227  168.2727 O.2     1  UNL1       -0.2681
     10 N         141.9990  139.5317  166.4649 N.am    1  UNL1       -0.2713
     11 C         141.1757  140.7087  166.0324 C.3     1  UNL1        0.1152
     12 C         140.5777  140.7408  164.6571 C.3     1  UNL1        0.1124
     13 N         140.8029  139.5960  163.7144 N.pl3   1  UNL1       -0.3034
     14 C         141.6261  138.4191  164.1470 C.3     1  UNL1        0.1124
     15 C         142.2242  138.3869  165.5222 C.3     1  UNL1        0.1152
     16 C         141.1166  140.7060  169.6017 C.ar    1  UNL1        0.1607
     17 C         140.8915  141.8508  170.5444 C.ar    1  UNL1        0.0402
     18 C         141.9216  142.9341  170.6682 C.ar    1  UNL1        0.0238
     19 C         143.1768  142.8726  169.8493 C.ar    1  UNL1        0.0992
     20 N         143.4019  141.7278  168.9067 N.ar    1  UNL1       -0.2362
     21 C         142.3719  140.6445  168.7829 C.ar    1  UNL1        0.1684
     22 C         138.8376  139.8626  168.6826 C.3     1  UNL1        0.2525
     23 O         140.0865  139.6226  169.4779 O.3     1  UNL1       -0.4698
     24 N         138.4106  139.7245  158.2135 N.am    1  UNL1       -0.2837
     25 C         138.0436  141.0365  157.5857 C.2     1  UNL1        0.2290
     26 O         138.2746  142.3162  158.3332 O.2     1  UNL1       -0.2745
     27 H         138.2590  138.8845  157.7229 H       1  UNL1        0.1549
     28 C         137.4455  141.0686  156.2105 C.3     1  UNL1        0.0879
     29 C         136.0777  140.8953  156.8012 C.3     1  UNL1        0.0135
     30 C         138.8133  141.2418  155.6197 C.3     1  UNL1        0.0135
     31 C         136.8474  141.1007  154.8352 C.ar    1  UNL1       -0.0146
     32 C         136.1726  142.3453  154.3397 C.ar    1  UNL1       -0.0038
     33 C         135.5746  142.3774  152.9645 C.ar    1  UNL1       -0.0003
     34 C         135.6513  141.1649  152.0847 C.ar    1  UNL1       -0.0000
     35 C         136.3261  139.9203  152.5802 C.ar    1  UNL1       -0.0003
     36 C         136.9242  139.8881  153.9555 C.ar    1  UNL1       -0.0038
@<TRIPOS>BOND
     1    22    23    1
     2    23    16    1
     3    16    17   ar
     4    17    18   ar
     5    18    19   ar
     6    19    20   ar
     7    20    21   ar
     8    21     8    1
     9     8     9    2
    10     8    10   am
    11    10    11    1
    12    11    12    1
    13    12    13    1
    14    13     1    1
    15     1     2   ar
    16     2     3   ar
    17     3     4   ar
    18     4    24    1
    19    24    25   am
    20    25    26    2
    21    25    28    1
    22    28    29    1
    23    28    30    1
    24    28    31    1
    25    31    32   ar
    26    32    33   ar
    27    33    34   ar
    28    34    35   ar
    29    35    36   ar
    30     4     5   ar
    31     5     6   ar
    32     6     7    1
    33    13    14    1
    34    14    15    1
    35    21    16   ar
    36    15    10    1
    37     6     1   ar
    38    36    31   ar
    39    24    27    1
@<TRIPOS>MOLECULE
*****
 36 39 0 0 0
SMALL
GASTEIGER

@<TRIPOS>ATOM
      1 C         139.5053  141.5354  159.6575 C.ar    1  UNL1        0.0587
      2 C         138.3661  142.0041  160.5135 C.ar    1  UNL1        0.0166
      3 C         138.5732  142.2243  161.9827 C.ar    1  UNL1        0.0160
      4 C         139.9194  141.9759  162.5959 C.ar    1  UNL1        0.0512
      5 C         141.0585  141.5072  161.7400 C.ar    1  UNL1        0.0273
      6 C         140.8515  141.2870  160.2707 C.ar    1  UNL1        0.0722
      7 CL        141.9907  140.8183  159.4147 Cl      1  UNL1       -0.0809
      8 C         138.6772  140.6544  153.7806 C.2     1  UNL1        0.2699
      9 O         138.7194  141.8177  152.8345 O.2     1  UNL1       -0.2681
     10 N         138.8842  140.8747  155.2498 N.am    1  UNL1       -0.2713
     11 C         138.8420  139.7113  156.1959 C.3     1  UNL1        0.1152
     12 C         139.0490  139.9316  157.6651 C.3     1  UNL1        0.1124
     13 N         139.2983  141.3152  158.1883 N.pl3   1  UNL1       -0.3034
     14 C         139.3405  142.4784  157.2422 C.3     1  UNL1        0.1124
     15 C         139.1335  142.2581  155.7730 C.3     1  UNL1        0.1152
     16 C         137.0237  138.7594  153.1287 C.ar    1  UNL1        0.1607
     17 C         136.7745  137.3758  152.6056 C.ar    1  UNL1        0.0402
     18 C         137.9295  136.5038  152.2111 C.ar    1  UNL1        0.0238
     19 C         139.3337  137.0153  152.3398 C.ar    1  UNL1        0.0992
     20 N         139.5829  138.3988  152.8630 N.ar    1  UNL1       -0.2362
     21 C         138.4279  139.2708  153.2574 C.ar    1  UNL1        0.1684
     22 C         135.1782  139.4127  154.8366 C.3     1  UNL1        0.2525
     23 O         135.8687  139.6314  153.5231 O.3     1  UNL1       -0.4698
     24 N         140.1265  142.1961  164.0652 N.am    1  UNL1       -0.2837
     25 C         139.7638  141.1185  165.0435 C.2     1  UNL1        0.2290
     26 O         139.1941  139.8206  164.5527 O.2     1  UNL1       -0.2745
     27 H         140.5004  143.0480  164.3873 H       1  UNL1        0.1549
     28 C         139.9709  141.3387  166.5128 C.3     1  UNL1        0.0879
     29 C         139.9295  139.8567  166.7408 C.3     1  UNL1        0.0135
     30 C         140.0122  142.8207  166.2848 C.3     1  UNL1        0.0135
     31 C         140.1779  141.5589  167.9820 C.ar    1  UNL1       -0.0146
     32 C         139.9099  140.4468  168.9522 C.ar    1  UNL1       -0.0038
     33 C         140.1170  140.6671  170.4214 C.ar    1  UNL1       -0.0003
     34 C         140.5920  141.9994  170.9204 C.ar    1  UNL1       -0.0000
     35 C         140.8600  143.1117  169.9502 C.ar    1  UNL1       -0.0003
     36 C         140.6529  142.8914  168.4810 C.ar    1  UNL1       -0.0038
@<TRIPOS>BOND
     1    22    23    1
     2    23    16    1
     3    16    17   ar
     4    17    18   ar
     5    18    19   ar
     6    19    20   ar
     7    20    21   ar
     8    21     8    1
     9     8     9    2
    10     8    10   am
    11    10    11    1
    12    11    12    1
    13    12    13    1
    14    13     1    1
    15     1     2   ar
    16     2     3   ar
    17     3     4   ar
    18     4    24    1
    19    24    25   am
    20    25    26    2
    21    25    28    1
    22    28    29    1
    23    28    30    1
    24    28    31    1
    25    31    32   ar
    26    32    33   ar
    27    33    34   ar
    28    34    35   ar
    29    35    36   ar
    30     4     5   ar
    31     5     6   ar
    32     6     7    1
    33    13    14    1
    34    14    15    1
    35    21    16   ar
    36    15    10    1
    37     6     1   ar
    38    36    31   ar
    39    24    27    1
@<TRIPOS>MOLECULE
*****
 36 39 0 0 0
SMALL
GASTEIGER

@<TRIPOS>ATOM
      1 C         141.7468  136.5515  156.7713 C.ar    1  UNL1        0.0587
      2 C         142.7753  137.0843  157.7244 C.ar    1  UNL1        0.0166
      3 C         142.4736  138.2991  158.5511 C.ar    1  UNL1        0.0160
      4 C         141.1435  138.9810  158.4246 C.ar    1  UNL1        0.0512
      5 C         140.1151  138.4481  157.4715 C.ar    1  UNL1        0.0273
      6 C         140.4168  137.2334  156.6448 C.ar    1  UNL1        0.0722
      7 CL        139.3883  136.7005  155.6917 Cl      1  UNL1       -0.0809
      8 C         142.9534  131.6925  153.4646 C.2     1  UNL1        0.2699
      9 O         142.8788  131.7661  151.9683 O.2     1  UNL1       -0.2681
     10 N         142.6517  132.9072  154.2912 N.am    1  UNL1       -0.2713
     11 C         142.7263  132.8335  155.7876 C.3     1  UNL1        0.1152
     12 C         142.4247  134.0483  156.6143 C.3     1  UNL1        0.1124
     13 N         142.0484  135.3367  155.9446 N.pl3   1  UNL1       -0.3034
     14 C         141.9739  135.4104  154.4483 C.3     1  UNL1        0.1124
     15 C         142.2755  134.1956  153.6216 C.3     1  UNL1        0.1152
     16 C         142.2608  129.4532  154.5855 C.ar    1  UNL1        0.1607
     17 C         142.6370  128.1649  155.2551 C.ar    1  UNL1        0.0402
     18 C         144.0821  127.8273  155.4736 C.ar    1  UNL1        0.0238
     19 C         145.1509  128.7780  155.0225 C.ar    1  UNL1        0.0992
     20 N         144.7747  130.0664  154.3528 N.ar    1  UNL1       -0.2362
     21 C         143.3296  130.4040  154.1343 C.ar    1  UNL1        0.1684
     22 C         139.7463  128.9760  155.0320 C.3     1  UNL1        0.2525
     23 O         140.8157  129.7908  154.3669 O.3     1  UNL1       -0.4698
     24 N         140.8419  140.1957  159.2513 N.am    1  UNL1       -0.2837
     25 C         140.1083  140.0545  160.5521 C.2     1  UNL1        0.2290
     26 O         139.6764  138.6985  161.0261 O.2     1  UNL1       -0.2745
     27 H         141.1253  141.0857  158.9401 H       1  UNL1        0.1549
     28 C         139.8067  141.2692  161.3787 C.3     1  UNL1        0.0879
     29 C         138.3826  140.8197  161.5196 C.3     1  UNL1        0.0135
     30 C         141.2308  141.7187  161.2379 C.3     1  UNL1        0.0135
     31 C         139.5050  142.4840  162.2054 C.ar    1  UNL1       -0.0146
     32 C         140.6036  143.1650  162.9665 C.ar    1  UNL1       -0.0038
     33 C         140.3020  144.3797  163.7931 C.ar    1  UNL1       -0.0003
     34 C         138.9017  144.9135  163.8588 C.ar    1  UNL1       -0.0000
     35 C         137.8030  144.2325  163.0977 C.ar    1  UNL1       -0.0003
     36 C         138.1047  143.0177  162.2710 C.ar    1  UNL1       -0.0038
@<TRIPOS>BOND
     1    22    23    1
     2    23    16    1
     3    16    17   ar
     4    17    18   ar
     5    18    19   ar
     6    19    20   ar
     7    20    21   ar
     8    21     8    1
     9     8     9    2
    10     8    10   am
    11    10    11    1
    12    11    12    1
    13    12    13    1
    14    13     1    1
    15     1     2   ar
    16     2     3   ar
    17     3     4   ar
    18     4    24    1
    19    24    25   am
    20    25    26    2
    21    25    28    1
    22    28    29    1
    23    28    30    1
    24    28    31    1
    25    31    32   ar
    26    32    33   ar
    27    33    34   ar
    28    34    35   ar
    29    35    36   ar
    30     4     5   ar
    31     5     6   ar
    32     6     7    1
    33    13    14    1
    34    14    15    1
    35    21    16   ar
    36    15    10    1
    37     6     1   ar
    38    36    31   ar
    39    24    27    1
