@<TRIPOS>MOLECULE
*****
 35 39 0 0 0
SMALL
GASTEIGER

@<TRIPOS>ATOM
      1 C         141.1326  140.9811  165.8356 C.ar    1  UNL1        0.2359
      2 N         140.3004  142.1647  165.4401 N.ar    1  UNL1       -0.1904
      3 C         141.1511  143.0690  164.5984 C.ar    1  UNL1        0.2006
      4 C         140.8646  144.3805  163.9293 C.ar    1  UNL1        0.1746
      5 C         141.9362  145.0674  163.1356 C.ar    1  UNL1        0.0416
      6 C         143.2942  144.4428  163.0109 C.ar    1  UNL1        0.0264
      7 C         143.5807  143.1312  163.6800 C.ar    1  UNL1        0.1560
      8 N         142.5091  142.4443  164.4737 N.ar    1  UNL1       -0.2028
      9 N         142.4977  141.1539  165.2384 N.ar    1  UNL1       -0.1284
     10 C         144.9387  142.5065  163.5553 C.3     1  UNL1        0.4349
     11 F         146.2967  141.8818  163.4306 F       1  UNL1       -0.1644
     12 F         145.2740  142.9579  164.9459 F       1  UNL1       -0.1644
     13 F         144.6034  142.0550  162.1647 F       1  UNL1       -0.1644
     14 N         140.6794  139.8272  166.6802 N.pl3   1  UNL1       -0.3033
     15 H         140.3405  139.0076  166.2528 H       1  UNL1        0.1496
     16 N         140.7696  139.8243  166.8086 N.pl3   1  UNL1       -0.2619
     17 C         139.5143  140.0435  167.5998 C.3     1  UNL1        0.0967
     18 C         139.5774  140.1384  169.0955 C.3     1  UNL1        0.0379
     19 C         140.0965  140.1674  170.5025 C.3     1  UNL1        0.0035
     20 C         141.5825  139.9691  170.4524 C.3     1  UNL1        0.0035
     21 C         141.9817  139.8176  169.0145 C.3     1  UNL1        0.0379
     22 C         142.0881  139.7000  167.5131 C.3     1  UNL1        0.0967
     23 C         140.7425  139.9222  168.1758 C.3     1  UNL1        0.0750
     24 C         139.0302  140.0761  161.8295 C.3     1  UNL1        0.0774
     25 C         139.9071  139.8451  163.0243 C.ar    1  UNL1        0.1825
     26 N         141.3125  139.3213  162.9984 N.ar    1  UNL1       -0.0586
     27 O         141.8067  139.2498  164.4129 O.2     1  UNL1       -0.3167
     28 C         140.7066  139.7293  165.3129 C.ar    1  UNL1        0.3182
     29 N         139.5327  140.0973  164.4548 N.ar    1  UNL1       -0.1778
     30 O         139.5066  145.0053  164.0539 O.3     1  UNL1       -0.4635
     31 C         138.4307  144.6646  163.0658 C.3     1  UNL1        0.3082
     32 C         137.6570  143.3876  163.2101 C.3     1  UNL1        0.4380
     33 F         136.8834  142.1107  163.3544 F       1  UNL1       -0.1663
     34 F         137.5271  143.6329  164.6842 F       1  UNL1       -0.1663
     35 F         137.7870  143.1423  161.7360 F       1  UNL1       -0.1663
@<TRIPOS>BOND
     1    24    25    1
     2    25    26   ar
     3    26    27   ar
     4    27    28   ar
     5    28    16    1
     6    16    17    1
     7    18    17    1
     8    18    19    1
     9    19    20    1
    10    21    20    1
    11    21    22    1
    12    21    23    1
    13    23    14    1
    14    14     1    1
    15     1     2   ar
    16     2     3   ar
    17     3     4   ar
    18     4    30    1
    19    30    31    1
    20    31    32    1
    21    32    33    1
    22    32    34    1
    23    32    35    1
    24     4     5   ar
    25     5     6   ar
    26     6     7   ar
    27     7    10    1
    28    10    11    1
    29    10    12    1
    30    10    13    1
    31     7     8   ar
    32     8     9   ar
    33    28    29   ar
    34    29    25   ar
    35    22    16    1
    36     9     1   ar
    37    23    18    1
    38     8     3   ar
    39    14    15    1
@<TRIPOS>MOLECULE
*****
 35 39 0 0 0
SMALL
GASTEIGER

@<TRIPOS>ATOM
      1 C         141.4418  140.5711  166.1853 C.ar    1  UNL1        0.2359
      2 N         140.4110  141.2402  165.3251 N.ar    1  UNL1       -0.1904
      3 C         141.1182  141.8806  164.1677 C.ar    1  UNL1        0.2006
      4 C         140.6153  142.6772  163.0005 C.ar    1  UNL1        0.1746
      5 C         141.5802  143.2007  161.9781 C.ar    1  UNL1        0.0416
      6 C         143.0479  142.9274  162.1230 C.ar    1  UNL1        0.0264
      7 C         143.5508  142.1307  163.2902 C.ar    1  UNL1        0.1560
      8 N         142.5860  141.6073  164.3125 N.ar    1  UNL1       -0.2028
      9 N         142.7860  140.7980  165.5595 N.ar    1  UNL1       -0.1284
     10 C         145.0186  141.8574  163.4350 C.3     1  UNL1        0.4349
     11 F         146.4864  141.5841  163.5798 F       1  UNL1       -0.1644
     12 F         145.0917  142.8463  164.5605 F       1  UNL1       -0.1644
     13 F         144.9455  140.8685  162.3095 F       1  UNL1       -0.1644
     14 N         141.1751  139.8089  167.4495 N.pl3   1  UNL1       -0.3033
     15 H         140.9811  138.8445  167.4112 H       1  UNL1        0.1496
     16 N         141.2631  139.8690  167.5647 N.pl3   1  UNL1       -0.2619
     17 C         139.9790  140.2528  168.2383 C.3     1  UNL1        0.0967
     18 C         140.0080  140.9601  169.5608 C.3     1  UNL1        0.0379
     19 C         140.4989  141.6220  170.8142 C.3     1  UNL1        0.0035
     20 C         141.9984  141.5871  170.7999 C.3     1  UNL1        0.0035
     21 C         142.4342  140.9038  169.5379 C.3     1  UNL1        0.0379
     22 C         142.5762  140.1925  168.2137 C.3     1  UNL1        0.0967
     23 C         141.2041  140.5162  168.7719 C.3     1  UNL1        0.0750
     24 C         139.5465  137.6851  163.0744 C.3     1  UNL1        0.0774
     25 C         140.4452  138.1579  164.1783 C.ar    1  UNL1        0.1825
     26 N         141.9346  137.9889  164.2361 N.ar    1  UNL1       -0.0586
     27 O         142.4223  138.6094  165.5118 O.2     1  UNL1       -0.3167
     28 C         141.2342  139.1618  166.2423 C.ar    1  UNL1        0.3182
     29 N         140.0124  138.8828  165.4181 N.ar    1  UNL1       -0.1778
     30 O         139.1475  142.9506  162.8556 O.3     1  UNL1       -0.4635
     31 C         138.5882  144.2806  163.2657 C.3     1  UNL1        0.3082
     32 C         138.6216  144.6960  164.7067 C.3     1  UNL1        0.4380
     33 F         138.6549  145.1114  166.1476 F       1  UNL1       -0.1663
     34 F         139.9776  145.3030  164.5003 F       1  UNL1       -0.1663
     35 F         137.2655  144.0890  164.9131 F       1  UNL1       -0.1663
@<TRIPOS>BOND
     1    24    25    1
     2    25    26   ar
     3    26    27   ar
     4    27    28   ar
     5    28    16    1
     6    16    17    1
     7    18    17    1
     8    18    19    1
     9    19    20    1
    10    21    20    1
    11    21    22    1
    12    21    23    1
    13    23    14    1
    14    14     1    1
    15     1     2   ar
    16     2     3   ar
    17     3     4   ar
    18     4    30    1
    19    30    31    1
    20    31    32    1
    21    32    33    1
    22    32    34    1
    23    32    35    1
    24     4     5   ar
    25     5     6   ar
    26     6     7   ar
    27     7    10    1
    28    10    11    1
    29    10    12    1
    30    10    13    1
    31     7     8   ar
    32     8     9   ar
    33    28    29   ar
    34    29    25   ar
    35    22    16    1
    36     9     1   ar
    37    23    18    1
    38     8     3   ar
    39    14    15    1
@<TRIPOS>MOLECULE
*****
 35 39 0 0 0
SMALL
GASTEIGER

@<TRIPOS>ATOM
      1 C         141.3541  141.1860  166.2422 C.ar    1  UNL1        0.2359
      2 N         142.5277  141.7957  165.5344 N.ar    1  UNL1       -0.1904
      3 C         142.0473  143.0166  164.8074 C.ar    1  UNL1        0.2006
      4 C         142.7589  144.0152  163.9434 C.ar    1  UNL1        0.1746
      5 C         142.0000  145.1586  163.3378 C.ar    1  UNL1        0.0416
      6 C         140.5296  145.3034  163.5962 C.ar    1  UNL1        0.0264
      7 C         139.8180  144.3049  164.4602 C.ar    1  UNL1        0.1560
      8 N         140.5768  143.1615  165.0658 N.ar    1  UNL1       -0.2028
      9 N         140.1484  142.0301  165.9525 N.ar    1  UNL1       -0.1284
     10 C         138.3475  144.4498  164.7186 C.3     1  UNL1        0.4349
     11 F         136.8770  144.5947  164.9771 F       1  UNL1       -0.1644
     12 F         138.0554  143.5241  163.5750 F       1  UNL1       -0.1644
     13 F         138.6397  145.3754  165.8622 F       1  UNL1       -0.1644
     14 N         141.3813  139.9493  167.0906 N.pl3   1  UNL1       -0.3033
     15 H         141.3457  139.0611  166.6674 H       1  UNL1        0.1496
     16 N         141.3034  139.9664  167.2258 N.pl3   1  UNL1       -0.2619
     17 C         142.6375  139.9205  167.9099 C.3     1  UNL1        0.0967
     18 C         142.7191  140.0371  169.4032 C.3     1  UNL1        0.0379
     19 C         142.3353  140.1851  170.8456 C.3     1  UNL1        0.0035
     20 C         140.8419  140.3054  170.9178 C.3     1  UNL1        0.0035
     21 C         140.3027  140.2318  169.5201 C.3     1  UNL1        0.0379
     22 C         140.0509  140.1289  168.0351 C.3     1  UNL1        0.0967
     23 C         141.4629  140.0659  168.5839 C.3     1  UNL1        0.0750
     24 C         139.4035  139.6774  162.3078 C.3     1  UNL1        0.0774
     25 C         140.3484  139.7170  163.4721 C.ar    1  UNL1        0.1825
     26 N         141.8438  139.6239  163.3975 N.ar    1  UNL1       -0.0586
     27 O         142.3835  139.7060  164.7946 O.2     1  UNL1       -0.3167
     28 C         141.2217  139.8498  165.7326 C.ar    1  UNL1        0.3182
     29 N         139.9640  139.8566  164.9152 N.ar    1  UNL1       -0.1778
     30 O         144.2294  143.8704  163.6849 O.3     1  UNL1       -0.4635
     31 C         144.7268  142.7955  162.7645 C.3     1  UNL1        0.3082
     32 C         145.2177  141.4945  163.3270 C.3     1  UNL1        0.4380
     33 F         145.7087  140.1935  163.8894 F       1  UNL1       -0.1663
     34 F         144.7376  140.7818  162.0975 F       1  UNL1       -0.1663
     35 F         145.6979  142.2072  164.5564 F       1  UNL1       -0.1663
@<TRIPOS>BOND
     1    24    25    1
     2    25    26   ar
     3    26    27   ar
     4    27    28   ar
     5    28    16    1
     6    16    17    1
     7    18    17    1
     8    18    19    1
     9    19    20    1
    10    21    20    1
    11    21    22    1
    12    21    23    1
    13    23    14    1
    14    14     1    1
    15     1     2   ar
    16     2     3   ar
    17     3     4   ar
    18     4    30    1
    19    30    31    1
    20    31    32    1
    21    32    33    1
    22    32    34    1
    23    32    35    1
    24     4     5   ar
    25     5     6   ar
    26     6     7   ar
    27     7    10    1
    28    10    11    1
    29    10    12    1
    30    10    13    1
    31     7     8   ar
    32     8     9   ar
    33    28    29   ar
    34    29    25   ar
    35    22    16    1
    36     9     1   ar
    37    23    18    1
    38     8     3   ar
    39    14    15    1
@<TRIPOS>MOLECULE
*****
 35 39 0 0 0
SMALL
GASTEIGER

@<TRIPOS>ATOM
      1 C         140.4791  141.5432  165.7235 C.ar    1  UNL1        0.2359
      2 N         139.8498  140.3860  165.0058 N.ar    1  UNL1       -0.1904
      3 C         139.2015  140.9109  163.7592 C.ar    1  UNL1        0.2006
      4 C         138.4325  140.2312  162.6654 C.ar    1  UNL1        0.1746
      5 C         137.8920  141.0331  161.5186 C.ar    1  UNL1        0.0416
      6 C         138.1206  142.5146  161.4658 C.ar    1  UNL1        0.0264
      7 C         138.8897  143.1943  162.5596 C.ar    1  UNL1        0.1560
      8 N         139.4301  142.3925  163.7064 N.ar    1  UNL1       -0.2028
      9 N         140.2197  142.7832  164.9203 N.ar    1  UNL1       -0.1284
     10 C         139.1183  144.6758  162.5068 C.3     1  UNL1        0.4349
     11 F         139.3470  146.1574  162.4539 F       1  UNL1       -0.1644
     12 F         137.6804  144.9105  162.8638 F       1  UNL1       -0.1644
     13 F         140.5561  144.4412  162.1497 F       1  UNL1       -0.1644
     14 N         141.2352  141.4727  167.0171 N.pl3   1  UNL1       -0.3033
     15 H         142.2140  141.3672  167.0101 H       1  UNL1        0.1496
     16 N         141.1403  141.4015  167.1199 N.pl3   1  UNL1       -0.2619
     17 C         141.2340  142.6480  167.9491 C.3     1  UNL1        0.0967
     18 C         140.4987  142.7382  169.2535 C.3     1  UNL1        0.0379
     19 C         139.6347  142.3953  170.4307 C.3     1  UNL1        0.0035
     20 C         139.1020  141.0081  170.2263 C.3     1  UNL1        0.0035
     21 C         139.6366  140.4936  168.9227 C.3     1  UNL1        0.0379
     22 C         140.3112  140.2452  167.5951 C.3     1  UNL1        0.0967
     23 C         140.4999  141.5628  168.3214 C.3     1  UNL1        0.0750
     24 C         143.5461  139.4708  162.8346 C.3     1  UNL1        0.0774
     25 C         142.9814  140.4238  163.8459 C.ar    1  UNL1        0.1825
     26 N         143.0326  141.9212  163.7711 N.ar    1  UNL1       -0.0586
     27 O         142.3491  142.4696  164.9885 O.2     1  UNL1       -0.3167
     28 C         141.8755  141.3113  165.8156 C.ar    1  UNL1        0.3182
     29 N         142.2663  140.0469  165.1094 N.ar    1  UNL1       -0.1778
     30 O         138.2038  138.7497  162.7181 O.3     1  UNL1       -0.4635
     31 C         139.2841  137.8078  162.2756 C.3     1  UNL1        0.3082
     32 C         140.2861  137.2966  163.2679 C.3     1  UNL1        0.4380
     33 F         141.2881  136.7854  164.2602 F       1  UNL1       -0.1663
     34 F         141.3237  137.2317  162.1866 F       1  UNL1       -0.1663
     35 F         139.2485  137.3615  164.3492 F       1  UNL1       -0.1663
@<TRIPOS>BOND
     1    24    25    1
     2    25    26   ar
     3    26    27   ar
     4    27    28   ar
     5    28    16    1
     6    16    17    1
     7    18    17    1
     8    18    19    1
     9    19    20    1
    10    21    20    1
    11    21    22    1
    12    21    23    1
    13    23    14    1
    14    14     1    1
    15     1     2   ar
    16     2     3   ar
    17     3     4   ar
    18     4    30    1
    19    30    31    1
    20    31    32    1
    21    32    33    1
    22    32    34    1
    23    32    35    1
    24     4     5   ar
    25     5     6   ar
    26     6     7   ar
    27     7    10    1
    28    10    11    1
    29    10    12    1
    30    10    13    1
    31     7     8   ar
    32     8     9   ar
    33    28    29   ar
    34    29    25   ar
    35    22    16    1
    36     9     1   ar
    37    23    18    1
    38     8     3   ar
    39    14    15    1
