@<TRIPOS>MOLECULE
*****
 30 33 0 0 0
SMALL
GASTEIGER

@<TRIPOS>ATOM
      1 N         137.3988  140.8903  162.8928 N.pl3   1  UNL1       -0.2979
      2 H         136.5060  140.5403  163.1156 H       1  UNL1        0.1536
      3 C         139.9807  138.5946  160.9400 C.ar    1  UNL1        0.1531
      4 C         139.1937  139.2062  162.0609 C.ar    1  UNL1        0.0528
      5 C         138.1857  140.2787  161.7717 C.ar    1  UNL1        0.0525
      6 C         137.9647  140.7397  160.3615 C.ar    1  UNL1        0.0161
      7 C         138.7517  140.1281  159.2406 C.ar    1  UNL1        0.0189
      8 C         139.7597  139.0556  159.5298 C.ar    1  UNL1        0.0825
      9 N         140.5467  138.4440  158.4087 N.pl3   1  UNL1       -0.3004
     10 C         142.0314  138.6454  158.3376 C.3     1  UNL1        0.1231
     11 C         142.8183  138.0339  157.2166 C.3     1  UNL1        0.1636
     12 O         142.1206  137.2208  156.1667 O.3     1  UNL1       -0.3501
     13 C         140.6359  137.0193  156.2379 C.3     1  UNL1        0.1636
     14 C         139.8490  137.6309  157.3590 C.3     1  UNL1        0.1231
     15 C         142.2137  137.8414  162.0337 C.3     1  UNL1        0.2525
     16 O         140.9887  137.5221  161.2292 O.3     1  UNL1       -0.4701
     17 C         137.9721  142.0352  163.6742 C.ar    1  UNL1        0.1322
     18 C         139.0352  141.7838  164.7022 C.ar    1  UNL1        0.0344
     19 C         139.6085  142.9287  165.4836 C.ar    1  UNL1        0.0043
     20 C         139.1187  144.3249  165.2370 C.ar    1  UNL1        0.0208
     21 C         138.0557  144.5762  164.2090 C.ar    1  UNL1        0.1003
     22 N         137.4823  143.4314  163.4276 N.ar    1  UNL1       -0.2291
     23 C         140.6715  142.6774  166.5115 C.ar    1  UNL1        0.0008
     24 C         142.1017  142.5187  166.0880 C.ar    1  UNL1        0.0000
     25 C         143.1649  142.2674  167.1160 C.ar    1  UNL1        0.0007
     26 C         142.7977  142.1748  168.5674 C.ar    1  UNL1        0.0103
     27 C         141.3675  142.3334  168.9909 C.ar    1  UNL1        0.0684
     28 C         140.3044  142.5848  167.9629 C.ar    1  UNL1        0.0103
     29 C         141.0003  142.2408  170.4423 C.1     1  UNL1        0.1004
     30 N         140.6332  142.1482  171.8937 N.1     1  UNL1       -0.1908
@<TRIPOS>BOND
     1    15    16    1
     2    16     3    1
     3     3     4   ar
     4     4     5   ar
     5     5     1    1
     6     1    17    1
     7    17    18   ar
     8    18    19   ar
     9    19    23    1
    10    23    24   ar
    11    24    25   ar
    12    25    26   ar
    13    26    27   ar
    14    27    29    1
    15    29    30    3
    16    27    28   ar
    17    19    20   ar
    18    20    21   ar
    19    21    22   ar
    20     5     6   ar
    21     6     7   ar
    22     7     8   ar
    23     8     9    1
    24     9    10    1
    25    10    11    1
    26    11    12    1
    27    12    13    1
    28    13    14    1
    29     8     3   ar
    30    14     9    1
    31    22    17   ar
    32    28    23   ar
    33     1     2    1
@<TRIPOS>MOLECULE
*****
 30 33 0 0 0
SMALL
GASTEIGER

@<TRIPOS>ATOM
      1 N         137.4120  140.6714  162.9648 N.pl3   1  UNL1       -0.2979
      2 H         136.5403  140.2965  163.2274 H       1  UNL1        0.1536
      3 C         139.0745  140.2137  159.3904 C.ar    1  UNL1        0.1531
      4 C         138.3115  140.8178  160.5318 C.ar    1  UNL1        0.0528
      5 C         138.1750  140.0672  161.8234 C.ar    1  UNL1        0.0525
      6 C         138.8015  138.7126  161.9735 C.ar    1  UNL1        0.0161
      7 C         139.5645  138.1086  160.8320 C.ar    1  UNL1        0.0189
      8 C         139.7010  138.8591  159.5405 C.ar    1  UNL1        0.0825
      9 N         140.4640  138.2550  158.3990 N.pl3   1  UNL1       -0.3004
     10 C         139.7284  137.7001  157.2154 C.3     1  UNL1        0.1231
     11 C         140.4913  137.0960  156.0739 C.3     1  UNL1        0.1636
     12 O         141.9900  137.0467  156.1161 O.3     1  UNL1       -0.3501
     13 C         142.7256  137.6016  157.2998 C.3     1  UNL1        0.1636
     14 C         141.9626  138.2057  158.4412 C.3     1  UNL1        0.1231
     15 C         137.9863  141.3633  157.3303 C.3     1  UNL1        0.2525
     16 O         139.2110  140.9642  158.0988 O.3     1  UNL1       -0.4701
     17 C         137.9771  141.8465  163.7062 C.ar    1  UNL1        0.1322
     18 C         139.0477  141.6392  164.7363 C.ar    1  UNL1        0.0344
     19 C         139.6128  142.8144  165.4776 C.ar    1  UNL1        0.0043
     20 C         139.1073  144.1969  165.1889 C.ar    1  UNL1        0.0208
     21 C         138.0368  144.4042  164.1588 C.ar    1  UNL1        0.1003
     22 N         137.4717  143.2290  163.4175 N.ar    1  UNL1       -0.2291
     23 C         140.6833  142.6072  166.5076 C.ar    1  UNL1        0.0008
     24 C         142.1153  142.4680  166.0835 C.ar    1  UNL1        0.0000
     25 C         143.1859  142.2608  167.1135 C.ar    1  UNL1        0.0007
     26 C         142.8244  142.1927  168.5677 C.ar    1  UNL1        0.0103
     27 C         141.3923  142.3319  168.9919 C.ar    1  UNL1        0.0684
     28 C         140.3218  142.5391  167.9618 C.ar    1  UNL1        0.0103
     29 C         141.0308  142.2638  170.4461 C.1     1  UNL1        0.1004
     30 N         140.6693  142.1957  171.9003 N.1     1  UNL1       -0.1908
@<TRIPOS>BOND
     1    15    16    1
     2    16     3    1
     3     3     4   ar
     4     4     5   ar
     5     5     1    1
     6     1    17    1
     7    17    18   ar
     8    18    19   ar
     9    19    23    1
    10    23    24   ar
    11    24    25   ar
    12    25    26   ar
    13    26    27   ar
    14    27    29    1
    15    29    30    3
    16    27    28   ar
    17    19    20   ar
    18    20    21   ar
    19    21    22   ar
    20     5     6   ar
    21     6     7   ar
    22     7     8   ar
    23     8     9    1
    24     9    10    1
    25    10    11    1
    26    11    12    1
    27    12    13    1
    28    13    14    1
    29     8     3   ar
    30    14     9    1
    31    22    17   ar
    32    28    23   ar
    33     1     2    1
@<TRIPOS>MOLECULE
*****
 30 33 0 0 0
SMALL
GASTEIGER

@<TRIPOS>ATOM
      1 N         138.8758  138.2632  164.0052 N.pl3   1  UNL1       -0.2979
      2 H         138.8136  137.2840  163.9242 H       1  UNL1        0.1536
      3 C         141.1482  139.9650  166.7783 C.ar    1  UNL1        0.1531
      4 C         140.7198  139.3454  165.4812 C.ar    1  UNL1        0.0528
      5 C         139.3042  138.8829  165.3024 C.ar    1  UNL1        0.0525
      6 C         138.3169  139.0399  166.4206 C.ar    1  UNL1        0.0161
      7 C         138.7452  139.6596  167.7177 C.ar    1  UNL1        0.0189
      8 C         140.1609  140.1221  167.8966 C.ar    1  UNL1        0.0825
      9 N         140.5892  140.7418  169.1938 N.pl3   1  UNL1       -0.3004
     10 C         139.9561  142.0193  169.6598 C.3     1  UNL1        0.1231
     11 C         140.3844  142.6390  170.9569 C.3     1  UNL1        0.1636
     12 O         141.4458  141.9811  171.7881 O.3     1  UNL1       -0.3501
     13 C         142.0788  140.7036  171.3220 C.3     1  UNL1        0.1636
     14 C         141.6505  140.0839  170.0248 C.3     1  UNL1        0.1231
     15 C         142.9424  141.8363  166.6075 C.3     1  UNL1        0.2525
     16 O         142.5638  140.4276  166.9572 O.3     1  UNL1       -0.4701
     17 C         138.5424  139.1355  162.8313 C.ar    1  UNL1        0.1322
     18 C         138.9810  140.5699  162.8142 C.ar    1  UNL1        0.0344
     19 C         138.6475  141.4422  161.6404 C.ar    1  UNL1        0.0043
     20 C         137.8754  140.8801  160.4837 C.ar    1  UNL1        0.0208
     21 C         137.4368  139.4458  160.5008 C.ar    1  UNL1        0.1003
     22 N         137.7703  138.5735  161.6746 N.ar    1  UNL1       -0.2291
     23 C         139.0861  142.8765  161.6233 C.ar    1  UNL1        0.0008
     24 C         138.6593  143.8044  162.7217 C.ar    1  UNL1        0.0000
     25 C         139.0978  145.2388  162.7046 C.ar    1  UNL1        0.0007
     26 C         139.9633  145.7452  161.5890 C.ar    1  UNL1        0.0103
     27 C         140.3901  144.8172  160.4905 C.ar    1  UNL1        0.0684
     28 C         139.9515  143.3829  160.5077 C.ar    1  UNL1        0.0103
     29 C         141.2556  145.3236  159.3749 C.1     1  UNL1        0.1004
     30 N         142.1210  145.8299  158.2593 N.1     1  UNL1       -0.1908
@<TRIPOS>BOND
     1    15    16    1
     2    16     3    1
     3     3     4   ar
     4     4     5   ar
     5     5     1    1
     6     1    17    1
     7    17    18   ar
     8    18    19   ar
     9    19    23    1
    10    23    24   ar
    11    24    25   ar
    12    25    26   ar
    13    26    27   ar
    14    27    29    1
    15    29    30    3
    16    27    28   ar
    17    19    20   ar
    18    20    21   ar
    19    21    22   ar
    20     5     6   ar
    21     6     7   ar
    22     7     8   ar
    23     8     9    1
    24     9    10    1
    25    10    11    1
    26    11    12    1
    27    12    13    1
    28    13    14    1
    29     8     3   ar
    30    14     9    1
    31    22    17   ar
    32    28    23   ar
    33     1     2    1
@<TRIPOS>MOLECULE
*****
 30 33 0 0 0
SMALL
GASTEIGER

@<TRIPOS>ATOM
      1 N         144.5041  142.9581  163.4647 N.pl3   1  UNL1       -0.2979
      2 H         145.2276  143.5480  163.7774 H       1  UNL1        0.1536
      3 C         141.7356  144.6430  161.1741 C.ar    1  UNL1        0.1531
      4 C         142.5378  144.2689  162.3851 C.ar    1  UNL1        0.0528
      5 C         143.7019  143.3322  162.2536 C.ar    1  UNL1        0.0525
      6 C         144.0640  142.7696  160.9111 C.ar    1  UNL1        0.0161
      7 C         143.2619  143.1436  159.7001 C.ar    1  UNL1        0.0189
      8 C         142.0977  144.0803  159.8316 C.ar    1  UNL1        0.0825
      9 N         141.2955  144.4544  158.6205 N.pl3   1  UNL1       -0.3004
     10 C         141.6431  145.6890  157.8427 C.3     1  UNL1        0.1231
     11 C         140.8410  146.0631  156.6317 C.3     1  UNL1        0.1636
     12 O         139.6913  145.2025  156.1983 O.3     1  UNL1       -0.3501
     13 C         139.3438  143.9679  156.9761 C.3     1  UNL1        0.1636
     14 C         140.1459  143.5939  158.1872 C.3     1  UNL1        0.1231
     15 C         139.6184  145.4349  162.4547 C.3     1  UNL1        0.2525
     16 O         140.5715  145.5797  161.3055 O.3     1  UNL1       -0.4701
     17 C         144.2038  141.6853  164.1994 C.ar    1  UNL1        0.1322
     18 C         143.0449  141.6235  165.1499 C.ar    1  UNL1        0.0344
     19 C         142.7446  140.3507  165.8845 C.ar    1  UNL1        0.0043
     20 C         143.6031  139.1397  165.6688 C.ar    1  UNL1        0.0208
     21 C         144.7619  139.2016  164.7184 C.ar    1  UNL1        0.1003
     22 N         145.0623  140.4744  163.9837 N.ar    1  UNL1       -0.2291
     23 C         141.5858  140.2888  166.8349 C.ar    1  UNL1        0.0008
     24 C         140.3027  139.6372  166.4117 C.ar    1  UNL1        0.0000
     25 C         139.1438  139.5753  167.3621 C.ar    1  UNL1        0.0007
     26 C         139.2681  140.1650  168.7357 C.ar    1  UNL1        0.0103
     27 C         140.5512  140.8166  169.1589 C.ar    1  UNL1        0.0684
     28 C         141.7100  140.8785  168.2085 C.ar    1  UNL1        0.0103
     29 C         140.6755  141.4063  170.5326 C.1     1  UNL1        0.1004
     30 N         140.7997  141.9960  171.9062 N.1     1  UNL1       -0.1908
@<TRIPOS>BOND
     1    15    16    1
     2    16     3    1
     3     3     4   ar
     4     4     5   ar
     5     5     1    1
     6     1    17    1
     7    17    18   ar
     8    18    19   ar
     9    19    23    1
    10    23    24   ar
    11    24    25   ar
    12    25    26   ar
    13    26    27   ar
    14    27    29    1
    15    29    30    3
    16    27    28   ar
    17    19    20   ar
    18    20    21   ar
    19    21    22   ar
    20     5     6   ar
    21     6     7   ar
    22     7     8   ar
    23     8     9    1
    24     9    10    1
    25    10    11    1
    26    11    12    1
    27    12    13    1
    28    13    14    1
    29     8     3   ar
    30    14     9    1
    31    22    17   ar
    32    28    23   ar
    33     1     2    1
@<TRIPOS>MOLECULE
*****
 30 33 0 0 0
SMALL
GASTEIGER

@<TRIPOS>ATOM
      1 N         141.1303  145.3580  161.9724 N.pl3   1  UNL1       -0.2979
      2 H         141.3283  146.3150  162.0915 H       1  UNL1        0.1536
      3 C         143.7438  142.8123  160.4104 C.ar    1  UNL1        0.1531
      4 C         142.9774  143.6170  161.4179 C.ar    1  UNL1        0.0528
      5 C         141.8967  144.5533  160.9647 C.ar    1  UNL1        0.0525
      6 C         141.5823  144.6849  159.5040 C.ar    1  UNL1        0.0161
      7 C         142.3486  143.8802  158.4965 C.ar    1  UNL1        0.0189
      8 C         143.4293  142.9439  158.9497 C.ar    1  UNL1        0.0825
      9 N         144.1957  142.1393  157.9420 N.pl3   1  UNL1       -0.3004
     10 C         145.5671  142.5762  157.5196 C.3     1  UNL1        0.1231
     11 C         146.3334  141.7716  156.5120 C.3     1  UNL1        0.1636
     12 O         145.7284  140.5300  155.9268 O.3     1  UNL1       -0.3501
     13 C         144.3570  140.0930  156.3492 C.3     1  UNL1        0.1636
     14 C         143.5907  140.8977  157.3568 C.3     1  UNL1        0.1231
     15 C         144.6323  141.0522  162.1022 C.3     1  UNL1        0.2525
     16 O         144.8245  141.8761  160.8636 O.3     1  UNL1       -0.4701
     17 C         140.0624  144.7045  162.7985 C.ar    1  UNL1        0.1322
     18 C         140.4393  143.8611  163.9804 C.ar    1  UNL1        0.0344
     19 C         139.3713  143.2076  164.8065 C.ar    1  UNL1        0.0043
     20 C         137.9265  143.3975  164.4508 C.ar    1  UNL1        0.0208
     21 C         137.5497  144.2408  163.2689 C.ar    1  UNL1        0.1003
     22 N         138.6176  144.8943  162.4428 N.ar    1  UNL1       -0.2291
     23 C         139.7482  142.3643  165.9884 C.ar    1  UNL1        0.0008
     24 C         139.4059  140.9041  166.0073 C.ar    1  UNL1        0.0000
     25 C         139.7827  140.0607  167.1892 C.ar    1  UNL1        0.0007
     26 C         140.5018  140.6776  168.3521 C.ar    1  UNL1        0.0103
     27 C         140.8441  142.1380  168.3330 C.ar    1  UNL1        0.0684
     28 C         140.4673  142.9813  167.1512 C.ar    1  UNL1        0.0103
     29 C         141.5632  142.7549  169.4959 C.1     1  UNL1        0.1004
     30 N         142.2823  143.3719  170.6588 N.1     1  UNL1       -0.1908
@<TRIPOS>BOND
     1    15    16    1
     2    16     3    1
     3     3     4   ar
     4     4     5   ar
     5     5     1    1
     6     1    17    1
     7    17    18   ar
     8    18    19   ar
     9    19    23    1
    10    23    24   ar
    11    24    25   ar
    12    25    26   ar
    13    26    27   ar
    14    27    29    1
    15    29    30    3
    16    27    28   ar
    17    19    20   ar
    18    20    21   ar
    19    21    22   ar
    20     5     6   ar
    21     6     7   ar
    22     7     8   ar
    23     8     9    1
    24     9    10    1
    25    10    11    1
    26    11    12    1
    27    12    13    1
    28    13    14    1
    29     8     3   ar
    30    14     9    1
    31    22    17   ar
    32    28    23   ar
    33     1     2    1
@<TRIPOS>MOLECULE
*****
 30 33 0 0 0
SMALL
GASTEIGER

@<TRIPOS>ATOM
      1 N         144.5833  142.3117  163.5074 N.pl3   1  UNL1       -0.2979
      2 H         145.5001  142.6543  163.6140 H       1  UNL1        0.1536
      3 C         141.5571  143.8642  161.4625 C.ar    1  UNL1        0.1531
      4 C         142.4014  143.4023  162.6130 C.ar    1  UNL1        0.0528
      5 C         143.7390  142.7736  162.3568 C.ar    1  UNL1        0.0525
      6 C         144.2323  142.6070  160.9501 C.ar    1  UNL1        0.0161
      7 C         143.3880  143.0689  159.7996 C.ar    1  UNL1        0.0189
      8 C         142.0504  143.6975  160.0558 C.ar    1  UNL1        0.0825
      9 N         141.2061  144.1595  158.9052 N.pl3   1  UNL1       -0.3004
     10 C         141.3545  145.5565  158.3794 C.3     1  UNL1        0.1231
     11 C         140.5103  146.0185  157.2289 C.3     1  UNL1        0.1636
     12 O         139.5175  145.0835  156.6041 O.3     1  UNL1       -0.3501
     13 C         139.3690  143.6865  157.1299 C.3     1  UNL1        0.1636
     14 C         140.2134  143.2245  158.2805 C.3     1  UNL1        0.1231
     15 C         140.1248  145.9602  162.0153 C.3     1  UNL1        0.2525
     16 O         140.2195  144.4929  161.7187 O.3     1  UNL1       -0.4701
     17 C         144.0307  141.3277  164.4956 C.ar    1  UNL1        0.1322
     18 C         143.2885  141.8153  165.7045 C.ar    1  UNL1        0.0344
     19 C         142.7359  140.8313  166.6927 C.ar    1  UNL1        0.0043
     20 C         142.9256  139.3598  166.4719 C.ar    1  UNL1        0.0208
     21 C         143.6678  138.8723  165.2630 C.ar    1  UNL1        0.1003
     22 N         144.2203  139.8562  164.2749 N.ar    1  UNL1       -0.2291
     23 C         141.9938  141.3188  167.9016 C.ar    1  UNL1        0.0008
     24 C         142.4712  142.5379  168.6336 C.ar    1  UNL1        0.0000
     25 C         141.7290  143.0254  169.8426 C.ar    1  UNL1        0.0007
     26 C         140.5094  142.2939  170.3194 C.ar    1  UNL1        0.0103
     27 C         140.0320  141.0748  169.5873 C.ar    1  UNL1        0.0684
     28 C         140.7741  140.5873  168.3784 C.ar    1  UNL1        0.0103
     29 C         138.8123  140.3432  170.0641 C.1     1  UNL1        0.1004
     30 N         137.5927  139.6117  170.5410 N.1     1  UNL1       -0.1908
@<TRIPOS>BOND
     1    15    16    1
     2    16     3    1
     3     3     4   ar
     4     4     5   ar
     5     5     1    1
     6     1    17    1
     7    17    18   ar
     8    18    19   ar
     9    19    23    1
    10    23    24   ar
    11    24    25   ar
    12    25    26   ar
    13    26    27   ar
    14    27    29    1
    15    29    30    3
    16    27    28   ar
    17    19    20   ar
    18    20    21   ar
    19    21    22   ar
    20     5     6   ar
    21     6     7   ar
    22     7     8   ar
    23     8     9    1
    24     9    10    1
    25    10    11    1
    26    11    12    1
    27    12    13    1
    28    13    14    1
    29     8     3   ar
    30    14     9    1
    31    22    17   ar
    32    28    23   ar
    33     1     2    1
@<TRIPOS>MOLECULE
*****
 30 33 0 0 0
SMALL
GASTEIGER

@<TRIPOS>ATOM
      1 N         144.3747  143.0850  163.3761 N.pl3   1  UNL1       -0.2979
      2 H         145.1094  143.6768  163.6578 H       1  UNL1        0.1536
      3 C         143.1319  143.2012  159.6089 C.ar    1  UNL1        0.1531
      4 C         143.9440  142.8625  160.8236 C.ar    1  UNL1        0.0528
      5 C         143.5625  143.4238  162.1613 C.ar    1  UNL1        0.0525
      6 C         142.3689  144.3239  162.2842 C.ar    1  UNL1        0.0161
      7 C         141.5568  144.6626  161.0694 C.ar    1  UNL1        0.0189
      8 C         141.9383  144.1013  159.7318 C.ar    1  UNL1        0.0825
      9 N         141.1261  144.4401  158.5170 N.pl3   1  UNL1       -0.3004
     10 C         140.0714  143.4905  158.0312 C.3     1  UNL1        0.1231
     11 C         139.2593  143.8292  156.8165 C.3     1  UNL1        0.1636
     12 O         139.5018  145.1175  156.0874 O.3     1  UNL1       -0.3501
     13 C         140.5565  146.0671  156.5732 C.3     1  UNL1        0.1636
     14 C         141.3687  145.7283  157.7880 C.3     1  UNL1        0.1231
     15 C         144.9595  142.4411  157.9260 C.3     1  UNL1        0.2525
     16 O         143.5134  142.6399  158.2712 O.3     1  UNL1       -0.4701
     17 C         144.0674  141.8447  164.1617 C.ar    1  UNL1        0.1322
     18 C         143.3724  141.9493  165.4869 C.ar    1  UNL1        0.0344
     19 C         143.0651  140.7089  166.2725 C.ar    1  UNL1        0.0043
     20 C         143.4529  139.3641  165.7329 C.ar    1  UNL1        0.0208
     21 C         144.1478  139.2596  164.4078 C.ar    1  UNL1        0.1003
     22 N         144.4551  140.4999  163.6222 N.ar    1  UNL1       -0.2291
     23 C         142.3702  140.8134  167.5977 C.ar    1  UNL1        0.0008
     24 C         142.2298  139.6003  168.4686 C.ar    1  UNL1        0.0000
     25 C         141.5348  139.7047  169.7938 C.ar    1  UNL1        0.0007
     26 C         140.9803  141.0223  170.2481 C.ar    1  UNL1        0.0103
     27 C         141.1207  142.2355  169.3771 C.ar    1  UNL1        0.0684
     28 C         141.8156  142.1310  168.0519 C.ar    1  UNL1        0.0103
     29 C         140.5661  143.5531  169.8313 C.1     1  UNL1        0.1004
     30 N         140.0115  144.8707  170.2855 N.1     1  UNL1       -0.1908
@<TRIPOS>BOND
     1    15    16    1
     2    16     3    1
     3     3     4   ar
     4     4     5   ar
     5     5     1    1
     6     1    17    1
     7    17    18   ar
     8    18    19   ar
     9    19    23    1
    10    23    24   ar
    11    24    25   ar
    12    25    26   ar
    13    26    27   ar
    14    27    29    1
    15    29    30    3
    16    27    28   ar
    17    19    20   ar
    18    20    21   ar
    19    21    22   ar
    20     5     6   ar
    21     6     7   ar
    22     7     8   ar
    23     8     9    1
    24     9    10    1
    25    10    11    1
    26    11    12    1
    27    12    13    1
    28    13    14    1
    29     8     3   ar
    30    14     9    1
    31    22    17   ar
    32    28    23   ar
    33     1     2    1
@<TRIPOS>MOLECULE
*****
 30 33 0 0 0
SMALL
GASTEIGER

@<TRIPOS>ATOM
      1 N         137.2002  141.0291  162.8856 N.pl3   1  UNL1       -0.2979
      2 H         136.2438  140.8212  162.9919 H       1  UNL1        0.1536
      3 C         139.3543  140.5076  159.5935 C.ar    1  UNL1        0.1531
      4 C         138.5574  141.1749  160.6750 C.ar    1  UNL1        0.0528
      5 C         137.9972  140.3618  161.8041 C.ar    1  UNL1        0.0525
      6 C         138.2340  138.8814  161.8518 C.ar    1  UNL1        0.0161
      7 C         139.0309  138.2141  160.7704 C.ar    1  UNL1        0.0189
      8 C         139.5911  139.0272  159.6412 C.ar    1  UNL1        0.0825
      9 N         140.3881  138.3599  158.5597 N.pl3   1  UNL1       -0.3004
     10 C         141.8786  138.2494  158.6861 C.3     1  UNL1        0.1231
     11 C         142.6756  137.5821  157.6047 C.3     1  UNL1        0.1636
     12 O         141.9820  137.0252  156.3968 O.3     1  UNL1       -0.3501
     13 C         140.4914  137.1356  156.2705 C.3     1  UNL1        0.1636
     14 C         139.6944  137.8030  157.3520 C.3     1  UNL1        0.1231
     15 C         141.0004  142.3215  158.7274 C.3     1  UNL1        0.2525
     16 O         139.9145  141.3207  158.4643 O.3     1  UNL1       -0.4701
     17 C         137.8605  142.0132  163.8052 C.ar    1  UNL1        0.1322
     18 C         138.8583  141.5388  164.8198 C.ar    1  UNL1        0.0344
     19 C         139.5186  142.5228  165.7394 C.ar    1  UNL1        0.0043
     20 C         139.1811  143.9813  165.6443 C.ar    1  UNL1        0.0208
     21 C         138.1834  144.4557  164.6297 C.ar    1  UNL1        0.1003
     22 N         137.5231  143.4716  163.7102 N.ar    1  UNL1       -0.2291
     23 C         140.5163  142.0485  166.7540 C.ar    1  UNL1        0.0008
     24 C         140.7044  142.8088  168.0332 C.ar    1  UNL1        0.0000
     25 C         141.7022  142.3345  169.0479 C.ar    1  UNL1        0.0007
     26 C         142.5118  141.0998  168.7833 C.ar    1  UNL1        0.0103
     27 C         142.3237  140.3394  167.5040 C.ar    1  UNL1        0.0684
     28 C         141.3260  140.8138  166.4894 C.ar    1  UNL1        0.0103
     29 C         143.1333  139.1048  167.2394 C.1     1  UNL1        0.1004
     30 N         143.9430  137.8701  166.9748 N.1     1  UNL1       -0.1908
@<TRIPOS>BOND
     1    15    16    1
     2    16     3    1
     3     3     4   ar
     4     4     5   ar
     5     5     1    1
     6     1    17    1
     7    17    18   ar
     8    18    19   ar
     9    19    23    1
    10    23    24   ar
    11    24    25   ar
    12    25    26   ar
    13    26    27   ar
    14    27    29    1
    15    29    30    3
    16    27    28   ar
    17    19    20   ar
    18    20    21   ar
    19    21    22   ar
    20     5     6   ar
    21     6     7   ar
    22     7     8   ar
    23     8     9    1
    24     9    10    1
    25    10    11    1
    26    11    12    1
    27    12    13    1
    28    13    14    1
    29     8     3   ar
    30    14     9    1
    31    22    17   ar
    32    28    23   ar
    33     1     2    1
@<TRIPOS>MOLECULE
*****
 30 33 0 0 0
SMALL
GASTEIGER

@<TRIPOS>ATOM
      1 N         138.9408  138.2144  163.9342 N.pl3   1  UNL1       -0.2979
      2 H         138.8709  137.2349  163.8633 H       1  UNL1        0.1536
      3 C         141.0797  140.0583  166.7226 C.ar    1  UNL1        0.1531
      4 C         140.6962  139.4264  165.4174 C.ar    1  UNL1        0.0528
      5 C         139.3244  138.8463  165.2395 C.ar    1  UNL1        0.0525
      6 C         138.3362  138.8981  166.3667 C.ar    1  UNL1        0.0161
      7 C         138.7197  139.5300  167.6719 C.ar    1  UNL1        0.0189
      8 C         140.0915  140.1101  167.8498 C.ar    1  UNL1        0.0825
      9 N         140.4750  140.7421  169.1551 N.pl3   1  UNL1       -0.3004
     10 C         139.9801  142.1161  169.4972 C.3     1  UNL1        0.1231
     11 C         140.3636  142.7481  170.8024 C.3     1  UNL1        0.1636
     12 O         141.2421  142.0060  171.7655 O.3     1  UNL1       -0.3501
     13 C         141.7370  140.6319  171.4234 C.3     1  UNL1        0.1636
     14 C         141.3535  140.0000  170.1182 C.3     1  UNL1        0.1231
     15 C         142.7120  142.0716  166.5426 C.3     1  UNL1        0.2525
     16 O         142.4515  140.6385  166.9006 O.3     1  UNL1       -0.4701
     17 C         138.6639  139.0748  162.7372 C.ar    1  UNL1        0.1322
     18 C         139.4090  140.3633  162.5511 C.ar    1  UNL1        0.0344
     19 C         139.1321  141.2237  161.3540 C.ar    1  UNL1        0.0043
     20 C         138.1099  140.7956  160.3430 C.ar    1  UNL1        0.0208
     21 C         137.3648  139.5071  160.5292 C.ar    1  UNL1        0.1003
     22 N         137.6418  138.6467  161.7262 N.ar    1  UNL1       -0.2291
     23 C         139.8772  142.5121  161.1679 C.ar    1  UNL1        0.0008
     24 C         139.5906  143.3790  159.9778 C.ar    1  UNL1        0.0000
     25 C         140.3357  144.6675  159.7916 C.ar    1  UNL1        0.0007
     26 C         141.3675  145.0890  160.7955 C.ar    1  UNL1        0.0103
     27 C         141.6541  144.2220  161.9856 C.ar    1  UNL1        0.0684
     28 C         140.9089  142.9336  162.1718 C.ar    1  UNL1        0.0103
     29 C         142.6858  144.6435  162.9895 C.1     1  UNL1        0.1004
     30 N         143.7176  145.0650  163.9934 N.1     1  UNL1       -0.1908
@<TRIPOS>BOND
     1    15    16    1
     2    16     3    1
     3     3     4   ar
     4     4     5   ar
     5     5     1    1
     6     1    17    1
     7    17    18   ar
     8    18    19   ar
     9    19    23    1
    10    23    24   ar
    11    24    25   ar
    12    25    26   ar
    13    26    27   ar
    14    27    29    1
    15    29    30    3
    16    27    28   ar
    17    19    20   ar
    18    20    21   ar
    19    21    22   ar
    20     5     6   ar
    21     6     7   ar
    22     7     8   ar
    23     8     9    1
    24     9    10    1
    25    10    11    1
    26    11    12    1
    27    12    13    1
    28    13    14    1
    29     8     3   ar
    30    14     9    1
    31    22    17   ar
    32    28    23   ar
    33     1     2    1
