@<TRIPOS>MOLECULE
*****
 33 36 0 0 0
SMALL
GASTEIGER

@<TRIPOS>ATOM
      1 C         141.3494  140.9645  164.1133 C.ar    1  UNL1        0.1122
      2 N         140.7766  142.0084  163.2010 N.ar    1  UNL1       -0.2259
      3 C         141.3055  141.7576  161.8198 C.ar    1  UNL1        0.1412
      4 C         142.2051  140.5587  161.8786 C.ar    1  UNL1        0.0710
      5 S         142.2323  140.0686  163.2959 S.2     1  UNL1       -0.0670
      6 C         137.5884  138.4118  167.0439 C.3     1  UNL1        0.0320
      7 C         138.7542  139.2207  166.5575 C.3     1  UNL1        0.1155
      8 C         139.6562  139.9038  167.5422 C.3     1  UNL1        0.0328
      9 C         140.8219  140.7127  167.0557 C.3     1  UNL1        0.0426
     10 C         141.7240  141.3958  168.0406 C.3     1  UNL1        0.0673
     11 S         142.8897  142.2047  167.5541 S.3     1  UNL1       -0.0807
     12 C         143.1535  142.3306  166.0828 C.2     1  UNL1        0.1483
     13 N         144.3192  143.1395  165.5963 N.pl3   1  UNL1       -0.3380
     14 N         142.2514  141.6475  165.0980 N.2     1  UNL1       -0.2464
     15 C         141.0857  140.8386  165.5845 C.3     1  UNL1        0.1549
     16 C         140.1837  140.1556  164.5998 C.3     1  UNL1        0.1705
     17 O         139.0179  139.3466  165.0862 O.3     1  UNL1       -0.3538
     18 H         144.9112  143.5878  166.2427 H       1  UNL1        0.1442
     19 H         144.4923  143.2221  164.6307 H       1  UNL1        0.1442
     20 N         140.9901  142.5641  160.5951 N.am    1  UNL1       -0.2641
     21 C         141.8575  143.7290  160.2203 C.2     1  UNL1        0.2683
     22 O         143.0403  144.0875  161.0703 O.2     1  UNL1       -0.2681
     23 H         140.2138  142.3288  160.0372 H       1  UNL1        0.1566
     24 C         141.5421  144.5355  158.9955 C.ar    1  UNL1        0.1350
     25 C         142.4563  144.4837  157.8074 C.ar    1  UNL1        0.0269
     26 C         142.1409  145.2902  156.5826 C.ar    1  UNL1        0.0404
     27 C         140.9114  146.1485  156.5459 C.ar    1  UNL1        0.1634
     28 C         139.9972  146.2003  157.7340 C.ar    1  UNL1        0.1359
     29 N         140.3126  145.3938  158.9588 N.ar    1  UNL1       -0.2361
     30 O         140.5960  146.9550  155.3212 O.3     1  UNL1       -0.4220
     31 C         139.1907  147.4133  155.0663 C.3     1  UNL1        0.5087
     32 F         138.9057  148.8687  154.8412 F       1  UNL1       -0.1550
     33 F         138.0704  146.4163  155.0366 F       1  UNL1       -0.1550
@<TRIPOS>BOND
     1     7     6    1
     2     7     8    1
     3     9     8    1
     4     9    10    1
     5    10    11    1
     6    11    12    1
     7    12    13    1
     8    12    14    2
     9    14    15    1
    10    15     1    1
    11     1     2   ar
    12     2     3   ar
    13     3    20    1
    14    20    21   am
    15    21    22    2
    16    21    24    1
    17    24    25   ar
    18    25    26   ar
    19    26    27   ar
    20    27    30    1
    21    30    31    1
    22    31    32    1
    23    31    33    1
    24    27    28   ar
    25    28    29   ar
    26     3     4   ar
    27     4     5   ar
    28    15    16    1
    29    16    17    1
    30    17     7    1
    31    15     9    1
    32     5     1   ar
    33    29    24   ar
    34    13    18    1
    35    13    19    1
    36    20    23    1
@<TRIPOS>MOLECULE
*****
 33 36 0 0 0
SMALL
GASTEIGER

@<TRIPOS>ATOM
      1 C         140.2056  142.7088  165.0613 C.ar    1  UNL1        0.1122
      2 N         140.7355  142.6610  163.6588 N.ar    1  UNL1       -0.2259
      3 C         140.5807  144.0268  163.0580 C.ar    1  UNL1        0.1412
      4 C         139.9551  144.9187  164.0892 C.ar    1  UNL1        0.0710
      5 S         139.7233  144.1042  165.3273 S.2     1  UNL1       -0.0670
      6 C         143.0966  141.3903  169.4377 C.3     1  UNL1        0.0320
      7 C         142.1194  141.4478  168.3012 C.3     1  UNL1        0.1155
      8 C         141.1016  140.3591  168.1313 C.3     1  UNL1        0.0328
      9 C         140.1244  140.4165  166.9948 C.3     1  UNL1        0.0426
     10 C         139.1067  139.3278  166.8250 C.3     1  UNL1        0.0673
     11 S         138.1295  139.3852  165.6884 S.3     1  UNL1       -0.0807
     12 C         138.1701  140.5315  164.7216 C.2     1  UNL1        0.1483
     13 N         137.1929  140.5889  163.5851 N.pl3   1  UNL1       -0.3380
     14 N         139.1878  141.6202  164.8915 N.2     1  UNL1       -0.2464
     15 C         140.1650  141.5627  166.0280 C.3     1  UNL1        0.1549
     16 C         141.1827  142.6514  166.1979 C.3     1  UNL1        0.1705
     17 O         142.1599  142.5939  167.3344 O.3     1  UNL1       -0.3538
     18 H         136.5249  139.8744  163.4736 H       1  UNL1        0.1442
     19 H         137.2195  141.3412  162.9506 H       1  UNL1        0.1442
     20 N         140.9812  144.4299  161.6698 N.am    1  UNL1       -0.2641
     21 C         140.0549  144.1746  160.5181 C.2     1  UNL1        0.2683
     22 O         138.7280  143.5162  160.7545 O.2     1  UNL1       -0.2681
     23 H         141.8521  144.8620  161.5146 H       1  UNL1        0.1566
     24 C         140.4554  144.5777  159.1299 C.ar    1  UNL1        0.1350
     25 C         139.6848  144.0666  157.9487 C.ar    1  UNL1        0.0269
     26 C         140.0853  144.4696  156.5605 C.ar    1  UNL1        0.0404
     27 C         141.2563  145.3838  156.3534 C.ar    1  UNL1        0.1634
     28 C         142.0269  145.8949  157.5345 C.ar    1  UNL1        0.1359
     29 N         141.6264  145.4918  158.9227 N.ar    1  UNL1       -0.2361
     30 O         141.6568  145.7868  154.9652 O.3     1  UNL1       -0.4220
     31 C         140.7670  146.6860  154.1592 C.3     1  UNL1        0.5087
     32 F         140.9926  146.8381  152.6841 F       1  UNL1       -0.1550
     33 F         139.6516  147.4331  154.8283 F       1  UNL1       -0.1550
@<TRIPOS>BOND
     1     7     6    1
     2     7     8    1
     3     9     8    1
     4     9    10    1
     5    10    11    1
     6    11    12    1
     7    12    13    1
     8    12    14    2
     9    14    15    1
    10    15     1    1
    11     1     2   ar
    12     2     3   ar
    13     3    20    1
    14    20    21   am
    15    21    22    2
    16    21    24    1
    17    24    25   ar
    18    25    26   ar
    19    26    27   ar
    20    27    30    1
    21    30    31    1
    22    31    32    1
    23    31    33    1
    24    27    28   ar
    25    28    29   ar
    26     3     4   ar
    27     4     5   ar
    28    15    16    1
    29    16    17    1
    30    17     7    1
    31    15     9    1
    32     5     1   ar
    33    29    24   ar
    34    13    18    1
    35    13    19    1
    36    20    23    1
@<TRIPOS>MOLECULE
*****
 33 36 0 0 0
SMALL
GASTEIGER

@<TRIPOS>ATOM
      1 C         140.2503  143.2740  163.9412 C.ar    1  UNL1        0.1122
      2 N         139.8362  142.4958  162.7275 N.ar    1  UNL1       -0.2259
      3 C         138.7915  143.2906  162.0015 C.ar    1  UNL1        0.1412
      4 C         138.5599  144.5599  162.7665 C.ar    1  UNL1        0.0710
      5 S         139.4615  144.5497  163.9652 S.2     1  UNL1       -0.0670
      6 C         140.0934  140.1466  168.3508 C.3     1  UNL1        0.0320
      7 C         140.4868  141.0480  167.2182 C.3     1  UNL1        0.1155
      8 C         141.9033  141.5263  167.0976 C.3     1  UNL1        0.0328
      9 C         142.2967  142.4277  165.9650 C.3     1  UNL1        0.0426
     10 C         143.7133  142.9060  165.8444 C.3     1  UNL1        0.0673
     11 S         144.1067  143.8075  164.7119 S.3     1  UNL1       -0.0807
     12 C         143.0834  144.2306  163.6999 C.2     1  UNL1        0.1483
     13 N         143.4768  145.1321  162.5674 N.pl3   1  UNL1       -0.3380
     14 N         141.6669  143.7523  163.8206 N.2     1  UNL1       -0.2464
     15 C         141.2735  142.8509  164.9531 C.3     1  UNL1        0.1549
     16 C         139.8570  142.3726  165.0737 C.3     1  UNL1        0.1705
     17 O         139.4636  141.4711  166.2063 O.3     1  UNL1       -0.3538
     18 H         144.4065  145.4460  162.4882 H       1  UNL1        0.1442
     19 H         142.8052  145.4098  161.9032 H       1  UNL1        0.1442
     20 N         138.0998  142.8868  160.7332 N.am    1  UNL1       -0.2641
     21 C         138.8626  142.8492  159.4422 C.2     1  UNL1        0.2683
     22 O         140.3171  143.2154  159.4195 O.2     1  UNL1       -0.2681
     23 H         137.1452  142.6465  160.7481 H       1  UNL1        0.1566
     24 C         138.1709  142.4455  158.1739 C.ar    1  UNL1        0.1350
     25 C         137.7765  141.0145  157.9575 C.ar    1  UNL1        0.0269
     26 C         137.0848  140.6108  156.6892 C.ar    1  UNL1        0.0404
     27 C         136.7875  141.6379  155.6373 C.ar    1  UNL1        0.1634
     28 C         137.1819  143.0689  155.8538 C.ar    1  UNL1        0.1359
     29 N         137.8736  143.4726  157.1221 N.ar    1  UNL1       -0.2361
     30 O         136.0959  141.2342  154.3691 O.3     1  UNL1       -0.4220
     31 C         134.7175  140.6451  154.4213 C.3     1  UNL1        0.5087
     32 F         134.4935  139.3185  155.0845 F       1  UNL1       -0.1550
     33 F         133.5630  141.3826  153.8104 F       1  UNL1       -0.1550
@<TRIPOS>BOND
     1     7     6    1
     2     7     8    1
     3     9     8    1
     4     9    10    1
     5    10    11    1
     6    11    12    1
     7    12    13    1
     8    12    14    2
     9    14    15    1
    10    15     1    1
    11     1     2   ar
    12     2     3   ar
    13     3    20    1
    14    20    21   am
    15    21    22    2
    16    21    24    1
    17    24    25   ar
    18    25    26   ar
    19    26    27   ar
    20    27    30    1
    21    30    31    1
    22    31    32    1
    23    31    33    1
    24    27    28   ar
    25    28    29   ar
    26     3     4   ar
    27     4     5   ar
    28    15    16    1
    29    16    17    1
    30    17     7    1
    31    15     9    1
    32     5     1   ar
    33    29    24   ar
    34    13    18    1
    35    13    19    1
    36    20    23    1
@<TRIPOS>MOLECULE
*****
 33 36 0 0 0
SMALL
GASTEIGER

@<TRIPOS>ATOM
      1 C         141.5461  142.3451  162.9455 C.ar    1  UNL1        0.1122
      2 N         142.0688  141.8366  161.6346 N.ar    1  UNL1       -0.2259
      3 C         143.4953  142.2808  161.5006 C.ar    1  UNL1        0.1412
      4 C         143.8542  143.0639  162.7286 C.ar    1  UNL1        0.0710
      5 S         142.6496  143.1037  163.6216 S.2     1  UNL1       -0.0670
      6 C         138.9242  138.0661  164.9617 C.3     1  UNL1        0.0320
      7 C         139.3371  139.4216  164.4696 C.3     1  UNL1        0.1155
      8 C         138.3668  140.5645  164.5174 C.3     1  UNL1        0.0328
      9 C         138.7797  141.9199  164.0253 C.3     1  UNL1        0.0426
     10 C         137.8094  143.0629  164.0731 C.3     1  UNL1        0.0673
     11 S         138.2223  144.4183  163.5810 S.3     1  UNL1       -0.0807
     12 C         139.6055  144.6309  163.0410 C.2     1  UNL1        0.1483
     13 N         140.0185  145.9864  162.5489 N.pl3   1  UNL1       -0.3380
     14 N         140.5758  143.4880  162.9932 N.2     1  UNL1       -0.2464
     15 C         140.1629  142.1325  163.4854 C.3     1  UNL1        0.1549
     16 C         141.1332  140.9897  163.4376 C.3     1  UNL1        0.1705
     17 O         140.7203  139.6342  163.9297 O.3     1  UNL1       -0.3538
     18 H         139.3816  146.7365  162.5803 H       1  UNL1        0.1442
     19 H         140.9263  146.1259  162.1945 H       1  UNL1        0.1442
     20 N         144.4033  141.9925  160.3421 N.am    1  UNL1       -0.2641
     21 C         144.2253  142.7298  159.0481 C.2     1  UNL1        0.2683
     22 O         143.1392  143.7556  158.9126 O.2     1  UNL1       -0.2681
     23 H         145.1162  141.3193  160.4310 H       1  UNL1        0.1566
     24 C         145.1334  142.4416  157.8895 C.ar    1  UNL1        0.1350
     25 C         146.5628  142.8948  157.9261 C.ar    1  UNL1        0.0269
     26 C         147.4709  142.6065  156.7675 C.ar    1  UNL1        0.0404
     27 C         146.9496  141.8650  155.5724 C.ar    1  UNL1        0.1634
     28 C         145.5202  141.4118  155.5359 C.ar    1  UNL1        0.1359
     29 N         144.6121  141.7001  156.6944 N.ar    1  UNL1       -0.2361
     30 O         147.8577  141.5767  154.4138 O.3     1  UNL1       -0.4220
     31 C         149.2709  142.0791  154.4255 C.3     1  UNL1        0.5087
     32 F         150.2937  141.4208  155.3032 F       1  UNL1       -0.1550
     33 F         149.6614  143.2399  153.5595 F       1  UNL1       -0.1550
@<TRIPOS>BOND
     1     7     6    1
     2     7     8    1
     3     9     8    1
     4     9    10    1
     5    10    11    1
     6    11    12    1
     7    12    13    1
     8    12    14    2
     9    14    15    1
    10    15     1    1
    11     1     2   ar
    12     2     3   ar
    13     3    20    1
    14    20    21   am
    15    21    22    2
    16    21    24    1
    17    24    25   ar
    18    25    26   ar
    19    26    27   ar
    20    27    30    1
    21    30    31    1
    22    31    32    1
    23    31    33    1
    24    27    28   ar
    25    28    29   ar
    26     3     4   ar
    27     4     5   ar
    28    15    16    1
    29    16    17    1
    30    17     7    1
    31    15     9    1
    32     5     1   ar
    33    29    24   ar
    34    13    18    1
    35    13    19    1
    36    20    23    1
@<TRIPOS>MOLECULE
*****
 33 36 0 0 0
SMALL
GASTEIGER

@<TRIPOS>ATOM
      1 C         139.4728  140.5738  163.9303 C.ar    1  UNL1        0.1122
      2 N         140.2922  140.3011  162.7039 N.ar    1  UNL1       -0.2259
      3 C         139.8512  138.9851  162.1348 C.ar    1  UNL1        0.1412
      4 C         138.7591  138.4445  163.0096 C.ar    1  UNL1        0.0710
      5 S         138.5252  139.4263  164.1193 S.2     1  UNL1       -0.0670
      6 C         141.5454  141.4505  168.8482 C.3     1  UNL1        0.0320
      7 C         140.8908  141.5609  167.5031 C.3     1  UNL1        0.1155
      8 C         140.3451  142.8793  167.0405 C.3     1  UNL1        0.0328
      9 C         139.6905  142.9897  165.6954 C.3     1  UNL1        0.0426
     10 C         139.1448  144.3082  165.2328 C.3     1  UNL1        0.0673
     11 S         138.4902  144.4186  163.8877 S.3     1  UNL1       -0.0807
     12 C         138.3814  143.2105  163.0051 C.2     1  UNL1        0.1483
     13 N         137.7268  143.3209  161.6600 N.pl3   1  UNL1       -0.3380
     14 N         138.9271  141.8922  163.4677 N.2     1  UNL1       -0.2464
     15 C         139.5816  141.7818  164.8129 C.3     1  UNL1        0.1549
     16 C         140.1273  140.4634  165.2755 C.3     1  UNL1        0.1705
     17 O         140.7819  140.3530  166.6206 O.3     1  UNL1       -0.3538
     18 H         137.3687  144.1863  161.3564 H       1  UNL1        0.1442
     19 H         137.6553  142.5281  161.0808 H       1  UNL1        0.1442
     20 N         140.4050  138.3255  160.9067 N.am    1  UNL1       -0.2641
     21 C         140.0016  138.8133  159.5469 C.2     1  UNL1        0.2683
     22 O         139.0444  139.9608  159.4152 O.2     1  UNL1       -0.2681
     23 H         141.0332  137.5725  160.9932 H       1  UNL1        0.1566
     24 C         140.5554  138.1538  158.3188 C.ar    1  UNL1        0.1350
     25 C         142.0389  138.0132  158.1471 C.ar    1  UNL1        0.0269
     26 C         142.5927  137.3537  156.9190 C.ar    1  UNL1        0.0404
     27 C         141.6630  136.8347  155.8625 C.ar    1  UNL1        0.1634
     28 C         140.1795  136.9753  156.0341 C.ar    1  UNL1        0.1359
     29 N         139.6257  137.6348  157.2623 N.ar    1  UNL1       -0.2361
     30 O         142.2168  136.1752  154.6344 O.3     1  UNL1       -0.4220
     31 C         142.9724  134.8849  154.7520 C.3     1  UNL1        0.5087
     32 F         142.6018  133.7171  153.8867 F       1  UNL1       -0.1550
     33 F         144.0987  134.7623  155.7351 F       1  UNL1       -0.1550
@<TRIPOS>BOND
     1     7     6    1
     2     7     8    1
     3     9     8    1
     4     9    10    1
     5    10    11    1
     6    11    12    1
     7    12    13    1
     8    12    14    2
     9    14    15    1
    10    15     1    1
    11     1     2   ar
    12     2     3   ar
    13     3    20    1
    14    20    21   am
    15    21    22    2
    16    21    24    1
    17    24    25   ar
    18    25    26   ar
    19    26    27   ar
    20    27    30    1
    21    30    31    1
    22    31    32    1
    23    31    33    1
    24    27    28   ar
    25    28    29   ar
    26     3     4   ar
    27     4     5   ar
    28    15    16    1
    29    16    17    1
    30    17     7    1
    31    15     9    1
    32     5     1   ar
    33    29    24   ar
    34    13    18    1
    35    13    19    1
    36    20    23    1
@<TRIPOS>MOLECULE
*****
 33 36 0 0 0
SMALL
GASTEIGER

@<TRIPOS>ATOM
      1 C         142.9730  135.5760  155.9197 C.ar    1  UNL1        0.1122
      2 N         142.0842  136.0652  157.0246 N.ar    1  UNL1       -0.2259
      3 C         142.3002  137.5422  157.1736 C.ar    1  UNL1        0.1412
      4 C         143.3224  137.9657  156.1608 C.ar    1  UNL1        0.0710
      5 S         143.7382  136.7505  155.3859 S.2     1  UNL1       -0.0670
      6 C         145.1310  131.0591  157.9668 C.3     1  UNL1        0.0320
      7 C         144.4467  132.0930  157.1225 C.3     1  UNL1        0.1155
      8 C         143.8674  131.7116  155.7925 C.3     1  UNL1        0.0328
      9 C         143.1831  132.7455  154.9482 C.3     1  UNL1        0.0426
     10 C         142.6039  132.3641  153.6181 C.3     1  UNL1        0.0673
     11 S         141.9196  133.3979  152.7738 S.3     1  UNL1       -0.0807
     12 C         141.8146  134.8132  153.2596 C.2     1  UNL1        0.1483
     13 N         141.1303  135.8471  152.4154 N.pl3   1  UNL1       -0.3380
     14 N         142.3938  135.1946  154.5897 N.2     1  UNL1       -0.2464
     15 C         143.0781  134.1607  155.4340 C.3     1  UNL1        0.1549
     16 C         143.6573  134.5421  156.7640 C.3     1  UNL1        0.1705
     17 O         144.3416  133.5082  157.6083 O.3     1  UNL1       -0.3538
     18 H         140.7501  135.5968  151.5424 H       1  UNL1        0.1442
     19 H         141.0613  136.7760  152.7342 H       1  UNL1        0.1442
     20 N         141.6143  138.4383  158.1619 N.am    1  UNL1       -0.2641
     21 C         140.1172  138.5272  158.1805 C.2     1  UNL1        0.2683
     22 O         139.3058  137.7201  157.2108 O.2     1  UNL1       -0.2681
     23 H         142.1469  138.9680  158.7983 H       1  UNL1        0.1566
     24 C         139.4313  139.4233  159.1687 C.ar    1  UNL1        0.1350
     25 C         139.0145  138.8854  160.5055 C.ar    1  UNL1        0.0269
     26 C         138.3286  139.7815  161.4938 C.ar    1  UNL1        0.0404
     27 C         138.0596  141.2154  161.1453 C.ar    1  UNL1        0.1634
     28 C         138.4765  141.7532  159.8086 C.ar    1  UNL1        0.1359
     29 N         139.1623  140.8572  158.8203 N.ar    1  UNL1       -0.2361
     30 O         137.3738  142.1114  162.1336 O.3     1  UNL1       -0.4220
     31 C         138.1046  143.2851  162.7149 C.3     1  UNL1        0.5087
     32 F         139.5948  143.3849  162.5751 F       1  UNL1       -0.1550
     33 F         137.3454  144.3592  163.4360 F       1  UNL1       -0.1550
@<TRIPOS>BOND
     1     7     6    1
     2     7     8    1
     3     9     8    1
     4     9    10    1
     5    10    11    1
     6    11    12    1
     7    12    13    1
     8    12    14    2
     9    14    15    1
    10    15     1    1
    11     1     2   ar
    12     2     3   ar
    13     3    20    1
    14    20    21   am
    15    21    22    2
    16    21    24    1
    17    24    25   ar
    18    25    26   ar
    19    26    27   ar
    20    27    30    1
    21    30    31    1
    22    31    32    1
    23    31    33    1
    24    27    28   ar
    25    28    29   ar
    26     3     4   ar
    27     4     5   ar
    28    15    16    1
    29    16    17    1
    30    17     7    1
    31    15     9    1
    32     5     1   ar
    33    29    24   ar
    34    13    18    1
    35    13    19    1
    36    20    23    1
@<TRIPOS>MOLECULE
*****
 33 36 0 0 0
SMALL
GASTEIGER

@<TRIPOS>ATOM
      1 C         143.2866  141.9375  163.9455 C.ar    1  UNL1        0.1122
      2 N         142.3319  142.5662  162.9743 N.ar    1  UNL1       -0.2259
      3 C         143.1221  143.4445  162.0500 C.ar    1  UNL1        0.1412
      4 C         144.5653  143.3585  162.4499 C.ar    1  UNL1        0.0710
      5 S         144.6670  142.4272  163.6214 S.2     1  UNL1       -0.0670
      6 C         143.1981  142.3069  169.3405 C.3     1  UNL1        0.0320
      7 C         143.1070  141.8667  167.9094 C.3     1  UNL1        0.1155
      8 C         142.6539  140.4752  167.5802 C.3     1  UNL1        0.0328
      9 C         142.5627  140.0350  166.1491 C.3     1  UNL1        0.0426
     10 C         142.1096  138.6434  165.8199 C.3     1  UNL1        0.0673
     11 S         142.0185  138.2032  164.3888 S.3     1  UNL1       -0.0807
     12 C         142.3804  139.1546  163.2870 C.2     1  UNL1        0.1483
     13 N         142.2893  138.7144  161.8560 N.pl3   1  UNL1       -0.3380
     14 N         142.8335  140.5461  163.6163 N.2     1  UNL1       -0.2464
     15 C         142.9247  140.9863  165.0473 C.3     1  UNL1        0.1549
     16 C         143.3778  142.3777  165.3766 C.3     1  UNL1        0.1705
     17 O         143.4689  142.8179  166.8076 O.3     1  UNL1       -0.3538
     18 H         141.9919  137.8011  161.6399 H       1  UNL1        0.1442
     19 H         142.5269  139.3388  161.1328 H       1  UNL1        0.1442
     20 N         142.5667  144.2645  160.9235 N.am    1  UNL1       -0.2641
     21 C         142.4874  143.6853  159.5422 C.2     1  UNL1        0.2683
     22 O         142.9635  142.2858  159.2874 O.2     1  UNL1       -0.2681
     23 H         142.2542  145.1830  161.0908 H       1  UNL1        0.1566
     24 C         141.9320  144.5054  158.4158 C.ar    1  UNL1        0.1350
     25 C         140.7497  145.3984  158.6501 C.ar    1  UNL1        0.0269
     26 C         140.1943  146.2185  157.5236 C.ar    1  UNL1        0.0404
     27 C         140.8211  146.1456  156.1629 C.ar    1  UNL1        0.1634
     28 C         142.0033  145.2526  155.9285 C.ar    1  UNL1        0.1359
     29 N         142.5587  144.4325  157.0550 N.ar    1  UNL1       -0.2361
     30 O         140.2657  146.9657  155.0364 O.3     1  UNL1       -0.4220
     31 C         138.8330  147.4088  155.0667 C.3     1  UNL1        0.5087
     32 F         138.4987  148.8499  155.3147 F       1  UNL1       -0.1550
     33 F         137.7346  146.4108  154.8490 F       1  UNL1       -0.1550
@<TRIPOS>BOND
     1     7     6    1
     2     7     8    1
     3     9     8    1
     4     9    10    1
     5    10    11    1
     6    11    12    1
     7    12    13    1
     8    12    14    2
     9    14    15    1
    10    15     1    1
    11     1     2   ar
    12     2     3   ar
    13     3    20    1
    14    20    21   am
    15    21    22    2
    16    21    24    1
    17    24    25   ar
    18    25    26   ar
    19    26    27   ar
    20    27    30    1
    21    30    31    1
    22    31    32    1
    23    31    33    1
    24    27    28   ar
    25    28    29   ar
    26     3     4   ar
    27     4     5   ar
    28    15    16    1
    29    16    17    1
    30    17     7    1
    31    15     9    1
    32     5     1   ar
    33    29    24   ar
    34    13    18    1
    35    13    19    1
    36    20    23    1
@<TRIPOS>MOLECULE
*****
 33 36 0 0 0
SMALL
GASTEIGER

@<TRIPOS>ATOM
      1 C         141.8224  141.2557  162.5023 C.ar    1  UNL1        0.1122
      2 N         141.3502  140.7625  161.1667 N.ar    1  UNL1       -0.2259
      3 C         141.6521  139.2956  161.0811 C.ar    1  UNL1        0.1412
      4 C         142.3108  138.8823  162.3638 C.ar    1  UNL1        0.0710
      5 S         142.4161  140.0937  163.2421 S.2     1  UNL1       -0.0670
      6 C         137.8370  144.1582  164.7253 C.3     1  UNL1        0.0320
      7 C         139.1310  143.6600  164.1532 C.3     1  UNL1        0.1155
      8 C         140.3217  144.5699  164.0879 C.3     1  UNL1        0.0328
      9 C         141.6158  144.0717  163.5158 C.3     1  UNL1        0.0426
     10 C         142.8066  144.9816  163.4505 C.3     1  UNL1        0.0673
     11 S         144.1006  144.4835  162.8784 S.3     1  UNL1       -0.0807
     12 C         144.2039  143.0754  162.3716 C.2     1  UNL1        0.1483
     13 N         145.4979  142.5773  161.7995 N.pl3   1  UNL1       -0.3380
     14 N         143.0132  142.1656  162.4370 N.2     1  UNL1       -0.2464
     15 C         141.7191  142.6637  163.0090 C.3     1  UNL1        0.1549
     16 C         140.5284  141.7539  163.0744 C.3     1  UNL1        0.1705
     17 O         139.2343  142.2520  163.6465 O.3     1  UNL1       -0.3538
     18 H         146.2795  143.1745  161.7567 H       1  UNL1        0.1442
     19 H         145.5657  141.6532  161.4669 H       1  UNL1        0.1442
     20 N         141.3485  138.3994  159.9172 N.am    1  UNL1       -0.2641
     21 C         142.3086  138.3112  158.7682 C.2     1  UNL1        0.2683
     22 O         143.5724  139.1191  158.7831 O.2     1  UNL1       -0.2681
     23 H         140.5191  137.8692  159.9074 H       1  UNL1        0.1566
     24 C         142.0050  137.4150  157.6043 C.ar    1  UNL1        0.1350
     25 C         142.9612  136.3214  157.2303 C.ar    1  UNL1        0.0269
     26 C         142.6576  135.4252  156.0664 C.ar    1  UNL1        0.0404
     27 C         141.3979  135.6226  155.2765 C.ar    1  UNL1        0.1634
     28 C         140.4417  136.7162  155.6504 C.ar    1  UNL1        0.1359
     29 N         140.7453  137.6124  156.8143 N.ar    1  UNL1       -0.2361
     30 O         141.0943  134.7264  154.1126 O.3     1  UNL1       -0.4220
     31 C         141.4451  133.2695  154.1763 C.3     1  UNL1        0.5087
     32 F         142.2681  132.6479  153.0872 F       1  UNL1       -0.1550
     33 F         140.9729  132.4341  155.3292 F       1  UNL1       -0.1550
@<TRIPOS>BOND
     1     7     6    1
     2     7     8    1
     3     9     8    1
     4     9    10    1
     5    10    11    1
     6    11    12    1
     7    12    13    1
     8    12    14    2
     9    14    15    1
    10    15     1    1
    11     1     2   ar
    12     2     3   ar
    13     3    20    1
    14    20    21   am
    15    21    22    2
    16    21    24    1
    17    24    25   ar
    18    25    26   ar
    19    26    27   ar
    20    27    30    1
    21    30    31    1
    22    31    32    1
    23    31    33    1
    24    27    28   ar
    25    28    29   ar
    26     3     4   ar
    27     4     5   ar
    28    15    16    1
    29    16    17    1
    30    17     7    1
    31    15     9    1
    32     5     1   ar
    33    29    24   ar
    34    13    18    1
    35    13    19    1
    36    20    23    1
@<TRIPOS>MOLECULE
*****
 33 36 0 0 0
SMALL
GASTEIGER

@<TRIPOS>ATOM
      1 C         142.2526  139.9896  165.3407 C.ar    1  UNL1        0.1122
      2 N         142.4069  140.7621  164.0641 N.ar    1  UNL1       -0.2259
      3 C         143.6434  140.2706  163.3714 C.ar    1  UNL1        0.1412
      4 C         144.2532  139.1944  164.2199 C.ar    1  UNL1        0.0710
      5 S         143.3937  139.0207  165.4369 S.2     1  UNL1       -0.0670
      6 C         141.6849  142.9568  169.8266 C.3     1  UNL1        0.0320
      7 C         141.5069  142.0234  168.6660 C.3     1  UNL1        0.1155
      8 C         140.2270  141.2571  168.5092 C.3     1  UNL1        0.0328
      9 C         140.0489  140.3238  167.3486 C.3     1  UNL1        0.0426
     10 C         138.7689  139.5575  167.1919 C.3     1  UNL1        0.0673
     11 S         138.5908  138.6241  166.0312 S.3     1  UNL1       -0.0807
     12 C         139.6928  138.4571  165.0272 C.2     1  UNL1        0.1483
     13 N         139.5147  137.5237  163.8666 N.pl3   1  UNL1       -0.3380
     14 N         140.9727  139.2234  165.1840 N.2     1  UNL1       -0.2464
     15 C         141.1507  140.1567  166.3446 C.3     1  UNL1        0.1549
     16 C         142.4307  140.9230  166.5013 C.3     1  UNL1        0.1705
     17 O         142.6087  141.8563  167.6620 O.3     1  UNL1       -0.3538
     18 H         138.6747  137.0208  163.7637 H       1  UNL1        0.1442
     19 H         140.2379  137.4141  163.2076 H       1  UNL1        0.1442
     20 N         144.1763  140.7680  162.0605 N.am    1  UNL1       -0.2641
     21 C         143.5230  140.3479  160.7774 C.2     1  UNL1        0.2683
     22 O         142.3367  139.4303  160.8051 O.2     1  UNL1       -0.2681
     23 H         144.9550  141.3702  162.0423 H       1  UNL1        0.1566
     24 C         144.0560  140.8453  159.4665 C.ar    1  UNL1        0.1350
     25 C         144.5004  142.2714  159.3301 C.ar    1  UNL1        0.0269
     26 C         145.0334  142.7688  158.0192 C.ar    1  UNL1        0.0404
     27 C         145.1220  141.8401  156.8446 C.ar    1  UNL1        0.1634
     28 C         144.6776  140.4140  156.9810 C.ar    1  UNL1        0.1359
     29 N         144.1446  139.9166  158.2919 N.ar    1  UNL1       -0.2361
     30 O         145.6550  142.3375  155.5337 O.3     1  UNL1       -0.4220
     31 C         147.0757  142.8074  155.4315 C.3     1  UNL1        0.5087
     32 F         147.4071  144.0221  154.6163 F       1  UNL1       -0.1550
     33 F         148.1651  142.0626  156.1445 F       1  UNL1       -0.1550
@<TRIPOS>BOND
     1     7     6    1
     2     7     8    1
     3     9     8    1
     4     9    10    1
     5    10    11    1
     6    11    12    1
     7    12    13    1
     8    12    14    2
     9    14    15    1
    10    15     1    1
    11     1     2   ar
    12     2     3   ar
    13     3    20    1
    14    20    21   am
    15    21    22    2
    16    21    24    1
    17    24    25   ar
    18    25    26   ar
    19    26    27   ar
    20    27    30    1
    21    30    31    1
    22    31    32    1
    23    31    33    1
    24    27    28   ar
    25    28    29   ar
    26     3     4   ar
    27     4     5   ar
    28    15    16    1
    29    16    17    1
    30    17     7    1
    31    15     9    1
    32     5     1   ar
    33    29    24   ar
    34    13    18    1
    35    13    19    1
    36    20    23    1
