@<TRIPOS>MOLECULE
*****
 29 31 0 0 0
SMALL
GASTEIGER

@<TRIPOS>ATOM
      1 C         139.3343  144.3479  162.3880 C.2     1  UNL1        0.2548
      2 O         138.0582  145.1360  162.3717 O.2     1  UNL1       -0.2694
      3 N         139.8649  143.8063  163.6823 N.am    1  UNL1       -0.2757
      4 C         139.1193  144.0530  164.9603 C.3     1  UNL1        0.0941
      5 C         139.6499  143.5114  166.2546 C.3     1  UNL1        0.0259
      6 C         140.9260  142.7232  166.2709 C.3     1  UNL1        0.0257
      7 C         141.6716  142.4766  164.9929 C.3     1  UNL1        0.0259
      8 C         141.1410  143.0181  163.6986 C.3     1  UNL1        0.0941
      9 C         141.5933  144.3702  159.2318 C.ar    1  UNL1        0.1747
     10 S         141.1106  145.0056  160.5020 S.2     1  UNL1       -0.0459
     11 C         140.0799  144.1012  161.1100 C.ar    1  UNL1        0.0824
     12 C         139.9256  142.9069  160.2156 C.ar    1  UNL1       -0.0017
     13 C         138.9987  141.7496  160.4423 C.3     1  UNL1        0.0323
     14 C         140.8610  143.0731  159.0549 C.ar    1  UNL1        0.0716
     15 BR        141.0337  142.1112  157.9169 Br      1  UNL1       -0.0456
     16 O         142.6270  144.9331  158.3019 O.3     1  UNL1       -0.4692
     17 C         142.2203  145.8842  157.2156 C.3     1  UNL1        0.2061
     18 C         139.7412  146.6438  157.0515 C.3     1  UNL1        0.0040
     19 C         140.8646  145.7666  156.5845 C.3     1  UNL1        0.0474
     20 C         141.4566  142.1817  167.5652 C.ar    1  UNL1       -0.0227
     21 C         142.8890  142.4146  167.9447 C.ar    1  UNL1       -0.0043
     22 C         143.4195  141.8730  169.2391 C.ar    1  UNL1       -0.0006
     23 C         142.5177  141.0986  170.1539 C.ar    1  UNL1       -0.0030
     24 C         141.0853  140.8657  169.7743 C.ar    1  UNL1       -0.0069
     25 C         140.5548  141.4072  168.4800 C.ar    1  UNL1       -0.0072
     26 C         140.1834  140.0913  170.6892 C.3     1  UNL1        0.0922
     27 N         138.7152  140.0010  170.3951 N.3     1  UNL1       -0.3175
     28 H         138.2936  140.9257  170.4824 H       1  UNL1        0.1192
     29 H         138.2744  139.3626  171.0573 H       1  UNL1        0.1192
@<TRIPOS>BOND
     1    18    19    1
     2    19    17    1
     3    17    16    1
     4    16     9    1
     5     9    10   ar
     6    10    11   ar
     7    11     1    1
     8     1     2    2
     9     1     3   am
    10     3     4    1
    11     4     5    1
    12     5     6    1
    13     6    20    1
    14    20    21   ar
    15    21    22   ar
    16    22    23   ar
    17    23    24   ar
    18    24    26    1
    19    26    27    1
    20    24    25   ar
    21     6     7    1
    22     7     8    1
    23    11    12   ar
    24    12    13    1
    25    12    14   ar
    26    14    15    1
    27    14     9   ar
    28     8     3    1
    29    25    20   ar
    30    27    28    1
    31    27    29    1
@<TRIPOS>MOLECULE
*****
 29 31 0 0 0
SMALL
GASTEIGER

@<TRIPOS>ATOM
      1 C         139.4010  144.0306  164.6966 C.2     1  UNL1        0.2548
      2 O         138.8054  145.1485  165.5000 O.2     1  UNL1       -0.2694
      3 N         139.7896  144.2596  163.2659 N.am    1  UNL1       -0.2757
      4 C         139.5826  145.6063  162.6388 C.3     1  UNL1        0.0941
      5 C         139.9712  145.8352  161.2082 C.3     1  UNL1        0.0259
      6 C         140.5668  144.7173  160.4048 C.3     1  UNL1        0.0257
      7 C         140.7739  143.3705  161.0319 C.3     1  UNL1        0.0259
      8 C         140.3853  143.1417  162.4625 C.3     1  UNL1        0.0941
      9 C         140.5266  140.8740  166.6545 C.ar    1  UNL1        0.1747
     10 S         140.7004  142.3171  166.2841 S.2     1  UNL1       -0.0459
     11 C         139.6081  142.6839  165.3237 C.ar    1  UNL1        0.0824
     12 C         138.7593  141.4674  165.1006 C.ar    1  UNL1       -0.0017
     13 C         137.5543  141.3842  164.2111 C.3     1  UNL1        0.0323
     14 C         139.3269  140.3488  165.9231 C.ar    1  UNL1        0.0716
     15 BR        138.7893  138.9507  166.0005 Br      1  UNL1       -0.0456
     16 O         141.3993  140.0931  167.5919 O.3     1  UNL1       -0.4692
     17 C         141.0597  140.0246  169.0513 C.3     1  UNL1        0.2061
     18 C         138.5960  140.2436  169.8463 C.3     1  UNL1        0.0040
     19 C         139.9415  140.8596  169.6012 C.3     1  UNL1        0.0474
     20 C         140.9554  144.9462  158.9742 C.ar    1  UNL1       -0.0227
     21 C         142.1631  144.2614  158.4062 C.ar    1  UNL1       -0.0043
     22 C         142.5516  144.4903  156.9756 C.ar    1  UNL1       -0.0006
     23 C         141.7325  145.4040  156.1129 C.ar    1  UNL1       -0.0030
     24 C         140.5248  146.0889  156.6810 C.ar    1  UNL1       -0.0069
     25 C         140.1363  145.8599  158.1115 C.ar    1  UNL1       -0.0072
     26 C         139.7057  147.0026  155.8183 C.3     1  UNL1        0.0922
     27 N         138.8508  148.0621  156.4482 N.3     1  UNL1       -0.3175
     28 H         138.1049  147.6214  156.9866 H       1  UNL1        0.1192
     29 H         138.4435  148.6481  155.7194 H       1  UNL1        0.1192
@<TRIPOS>BOND
     1    18    19    1
     2    19    17    1
     3    17    16    1
     4    16     9    1
     5     9    10   ar
     6    10    11   ar
     7    11     1    1
     8     1     2    2
     9     1     3   am
    10     3     4    1
    11     4     5    1
    12     5     6    1
    13     6    20    1
    14    20    21   ar
    15    21    22   ar
    16    22    23   ar
    17    23    24   ar
    18    24    26    1
    19    26    27    1
    20    24    25   ar
    21     6     7    1
    22     7     8    1
    23    11    12   ar
    24    12    13    1
    25    12    14   ar
    26    14    15    1
    27    14     9   ar
    28     8     3    1
    29    25    20   ar
    30    27    28    1
    31    27    29    1
@<TRIPOS>MOLECULE
*****
 29 31 0 0 0
SMALL
GASTEIGER

@<TRIPOS>ATOM
      1 C         139.9222  144.7954  161.3809 C.2     1  UNL1        0.2548
      2 O         139.3214  146.1640  161.2544 O.2     1  UNL1       -0.2694
      3 N         139.9275  144.0985  162.7092 N.am    1  UNL1       -0.2757
      4 C         139.3319  144.7701  163.9109 C.3     1  UNL1        0.0941
      5 C         139.3372  144.0732  165.2392 C.3     1  UNL1        0.0259
      6 C         139.9380  142.7047  165.3657 C.3     1  UNL1        0.0257
      7 C         140.5336  142.0330  164.1640 C.3     1  UNL1        0.0259
      8 C         140.5283  142.7299  162.8358 C.3     1  UNL1        0.0941
      9 C         142.0656  143.4843  158.4225 C.ar    1  UNL1        0.1747
     10 S         141.8893  144.3667  159.6226 S.2     1  UNL1       -0.0459
     11 C         140.5178  144.1237  160.1792 C.ar    1  UNL1        0.0824
     12 C         139.8464  143.0911  159.3231 C.ar    1  UNL1       -0.0017
     13 C         138.4615  142.5489  159.5183 C.3     1  UNL1        0.0323
     14 C         140.8030  142.6959  158.2374 C.ar    1  UNL1        0.0716
     15 BR        140.5427  141.6892  157.1563 Br      1  UNL1       -0.0456
     16 O         143.2896  143.4043  157.5591 O.3     1  UNL1       -0.4692
     17 C         144.4660  142.5845  157.9997 C.3     1  UNL1        0.2061
     18 C         143.7016  140.2555  158.8609 C.3     1  UNL1        0.0040
     19 C         144.4362  141.0917  157.8554 C.3     1  UNL1        0.0474
     20 C         139.9433  142.0077  166.6940 C.ar    1  UNL1       -0.0227
     21 C         139.5489  140.5634  166.7847 C.ar    1  UNL1       -0.0043
     22 C         139.5542  139.8665  168.1131 C.ar    1  UNL1       -0.0006
     23 C         139.9538  140.6140  169.3506 C.ar    1  UNL1       -0.0030
     24 C         140.3481  142.0584  169.2598 C.ar    1  UNL1       -0.0069
     25 C         140.3429  142.7553  167.9316 C.ar    1  UNL1       -0.0072
     26 C         140.7477  142.8060  170.4974 C.3     1  UNL1        0.0922
     27 N         140.6869  142.1293  171.8348 N.3     1  UNL1       -0.3175
     28 H         139.7157  141.9217  172.0669 H       1  UNL1        0.1192
     29 H         141.0823  142.7449  172.5455 H       1  UNL1        0.1192
@<TRIPOS>BOND
     1    18    19    1
     2    19    17    1
     3    17    16    1
     4    16     9    1
     5     9    10   ar
     6    10    11   ar
     7    11     1    1
     8     1     2    2
     9     1     3   am
    10     3     4    1
    11     4     5    1
    12     5     6    1
    13     6    20    1
    14    20    21   ar
    15    21    22   ar
    16    22    23   ar
    17    23    24   ar
    18    24    26    1
    19    26    27    1
    20    24    25   ar
    21     6     7    1
    22     7     8    1
    23    11    12   ar
    24    12    13    1
    25    12    14   ar
    26    14    15    1
    27    14     9   ar
    28     8     3    1
    29    25    20   ar
    30    27    28    1
    31    27    29    1
@<TRIPOS>MOLECULE
*****
 29 31 0 0 0
SMALL
GASTEIGER

@<TRIPOS>ATOM
      1 C         139.5971  143.7527  164.5377 C.2     1  UNL1        0.2548
      2 O         139.0190  144.8135  165.4269 O.2     1  UNL1       -0.2694
      3 N         139.9160  144.0661  163.1059 N.am    1  UNL1       -0.2757
      4 C         139.6568  145.4402  162.5632 C.3     1  UNL1        0.0941
      5 C         139.9757  145.7535  161.1314 C.3     1  UNL1        0.0259
      6 C         140.5538  144.6928  160.2423 C.3     1  UNL1        0.0257
      7 C         140.8130  143.3186  160.7850 C.3     1  UNL1        0.0259
      8 C         140.4941  143.0053  162.2168 C.3     1  UNL1        0.0941
      9 C         139.5298  140.0935  165.8303 C.ar    1  UNL1        0.1747
     10 S         138.8350  141.2950  165.2615 S.2     1  UNL1       -0.0459
     11 C         139.8563  142.3786  165.0804 C.ar    1  UNL1        0.0824
     12 C         141.1823  141.8467  165.5373 C.ar    1  UNL1       -0.0017
     13 C         142.4820  142.5956  165.5317 C.3     1  UNL1        0.0323
     14 C         140.9806  140.4344  166.0008 C.ar    1  UNL1        0.0716
     15 BR        142.0430  139.5231  166.5400 Br      1  UNL1       -0.0456
     16 O         138.8867  138.7814  166.1692 O.3     1  UNL1       -0.4692
     17 C         138.8632  137.6742  165.1575 C.3     1  UNL1        0.2061
     18 C         138.8986  138.1306  162.6001 C.3     1  UNL1        0.0040
     19 C         139.6258  137.8151  163.8735 C.3     1  UNL1        0.0474
     20 C         140.8727  145.0062  158.8104 C.ar    1  UNL1       -0.0227
     21 C         142.0579  144.3677  158.1489 C.ar    1  UNL1       -0.0043
     22 C         142.3768  144.6810  156.7171 C.ar    1  UNL1       -0.0006
     23 C         141.5105  145.6330  155.9468 C.ar    1  UNL1       -0.0030
     24 C         140.3253  146.2715  156.6084 C.ar    1  UNL1       -0.0069
     25 C         140.0064  145.9581  158.0401 C.ar    1  UNL1       -0.0072
     26 C         139.4590  147.2234  155.8381 C.3     1  UNL1        0.0922
     27 N         138.7127  148.3080  156.5571 N.3     1  UNL1       -0.3175
     28 H         138.0085  147.8904  157.1655 H       1  UNL1        0.1192
     29 H         138.2569  148.9158  155.8766 H       1  UNL1        0.1192
@<TRIPOS>BOND
     1    18    19    1
     2    19    17    1
     3    17    16    1
     4    16     9    1
     5     9    10   ar
     6    10    11   ar
     7    11     1    1
     8     1     2    2
     9     1     3   am
    10     3     4    1
    11     4     5    1
    12     5     6    1
    13     6    20    1
    14    20    21   ar
    15    21    22   ar
    16    22    23   ar
    17    23    24   ar
    18    24    26    1
    19    26    27    1
    20    24    25   ar
    21     6     7    1
    22     7     8    1
    23    11    12   ar
    24    12    13    1
    25    12    14   ar
    26    14    15    1
    27    14     9   ar
    28     8     3    1
    29    25    20   ar
    30    27    28    1
    31    27    29    1
@<TRIPOS>MOLECULE
*****
 29 31 0 0 0
SMALL
GASTEIGER

@<TRIPOS>ATOM
      1 C         143.0003  143.4214  161.8800 C.2     1  UNL1        0.2548
      2 O         144.4369  143.5147  161.4585 O.2     1  UNL1       -0.2694
      3 N         142.6558  143.0904  163.3019 N.am    1  UNL1       -0.2757
      4 C         143.7479  142.8528  164.3024 C.3     1  UNL1        0.0941
      5 C         143.4034  142.5218  165.7242 C.3     1  UNL1        0.0259
      6 C         141.9668  142.4285  166.1457 C.3     1  UNL1        0.0257
      7 C         140.8748  142.6661  165.1452 C.3     1  UNL1        0.0259
      8 C         141.2193  142.9971  163.7234 C.3     1  UNL1        0.0941
      9 C         140.3647  144.7617  159.3656 C.ar    1  UNL1        0.1747
     10 S         141.4880  144.9911  160.3329 S.2     1  UNL1       -0.0459
     11 C         141.9083  143.6590  160.8796 C.ar    1  UNL1        0.0824
     12 C         141.0447  142.6063  160.2502 C.ar    1  UNL1       -0.0017
     13 C         141.1216  141.1311  160.5107 C.3     1  UNL1        0.0323
     14 C         140.0907  143.2878  159.3145 C.ar    1  UNL1        0.0716
     15 BR        139.0462  142.6137  158.4751 Br      1  UNL1       -0.0456
     16 O         139.6422  145.8203  158.5862 O.3     1  UNL1       -0.4692
     17 C         140.1719  146.2646  157.2551 C.3     1  UNL1        0.2061
     18 C         138.8434  147.3915  155.3277 C.3     1  UNL1        0.0040
     19 C         139.3128  146.1524  156.0306 C.3     1  UNL1        0.0474
     20 C         141.6224  142.0975  167.5676 C.ar    1  UNL1       -0.0227
     21 C         140.6010  142.9148  168.3016 C.ar    1  UNL1       -0.0043
     22 C         140.2565  142.5838  169.7236 C.ar    1  UNL1       -0.0006
     23 C         140.9335  141.4356  170.4114 C.ar    1  UNL1       -0.0030
     24 C         141.9549  140.6183  169.6774 C.ar    1  UNL1       -0.0069
     25 C         142.2993  140.9493  168.2555 C.ar    1  UNL1       -0.0072
     26 C         142.6319  139.4700  170.3653 C.3     1  UNL1        0.0922
     27 N         143.7651  139.7267  171.3140 N.3     1  UNL1       -0.3175
     28 H         144.5586  140.1097  170.8001 H       1  UNL1        0.1192
     29 H         144.0395  138.8517  171.7605 H       1  UNL1        0.1192
@<TRIPOS>BOND
     1    18    19    1
     2    19    17    1
     3    17    16    1
     4    16     9    1
     5     9    10   ar
     6    10    11   ar
     7    11     1    1
     8     1     2    2
     9     1     3   am
    10     3     4    1
    11     4     5    1
    12     5     6    1
    13     6    20    1
    14    20    21   ar
    15    21    22   ar
    16    22    23   ar
    17    23    24   ar
    18    24    26    1
    19    26    27    1
    20    24    25   ar
    21     6     7    1
    22     7     8    1
    23    11    12   ar
    24    12    13    1
    25    12    14   ar
    26    14    15    1
    27    14     9   ar
    28     8     3    1
    29    25    20   ar
    30    27    28    1
    31    27    29    1
@<TRIPOS>MOLECULE
*****
 29 31 0 0 0
SMALL
GASTEIGER

@<TRIPOS>ATOM
      1 C         139.4571  138.9247  161.9143 C.2     1  UNL1        0.2548
      2 O         138.3799  137.9895  161.4506 O.2     1  UNL1       -0.2694
      3 N         139.6442  139.1857  163.3796 N.am    1  UNL1       -0.2757
      4 C         138.7540  138.5116  164.3811 C.3     1  UNL1        0.0941
      5 C         138.9411  138.7726  165.8463 C.3     1  UNL1        0.0259
      6 C         140.0183  139.7078  166.3099 C.3     1  UNL1        0.0257
      7 C         140.9085  140.3819  165.3084 C.3     1  UNL1        0.0259
      8 C         140.7214  140.1209  163.8432 C.3     1  UNL1        0.0941
      9 C         141.2039  141.1750  159.2780 C.ar    1  UNL1        0.1747
     10 S         140.0401  140.8668  160.1728 S.2     1  UNL1       -0.0459
     11 C         140.3473  139.5988  160.9128 C.ar    1  UNL1        0.0824
     12 C         141.7011  139.1233  160.4754 C.ar    1  UNL1       -0.0017
     13 C         142.4023  137.8901  160.9628 C.3     1  UNL1        0.0323
     14 C         142.2305  140.0974  159.4651 C.ar    1  UNL1        0.0716
     15 BR        143.5541  140.0094  158.7648 Br      1  UNL1       -0.0456
     16 O         141.3207  142.3538  158.3578 O.3     1  UNL1       -0.4692
     17 C         142.0708  143.5764  158.7966 C.3     1  UNL1        0.2061
     18 C         143.0154  143.5541  161.2167 C.3     1  UNL1        0.0040
     19 C         141.9963  144.0300  160.2244 C.3     1  UNL1        0.0474
     20 C         140.2054  139.9688  167.7752 C.ar    1  UNL1       -0.0227
     21 C         139.0140  140.0273  168.6847 C.ar    1  UNL1       -0.0043
     22 C         139.2011  140.2883  170.1500 C.ar    1  UNL1       -0.0006
     23 C         140.5795  140.4908  170.7057 C.ar    1  UNL1       -0.0030
     24 C         141.7709  140.4324  169.7961 C.ar    1  UNL1       -0.0069
     25 C         141.5838  140.1713  168.3309 C.ar    1  UNL1       -0.0072
     26 C         143.1494  140.6349  170.3519 C.3     1  UNL1        0.0922
     27 N         143.7491  139.6058  171.2637 N.3     1  UNL1       -0.3175
     28 H         143.2177  139.5713  172.1336 H       1  UNL1        0.1192
     29 H         144.7174  139.8541  171.4664 H       1  UNL1        0.1192
@<TRIPOS>BOND
     1    18    19    1
     2    19    17    1
     3    17    16    1
     4    16     9    1
     5     9    10   ar
     6    10    11   ar
     7    11     1    1
     8     1     2    2
     9     1     3   am
    10     3     4    1
    11     4     5    1
    12     5     6    1
    13     6    20    1
    14    20    21   ar
    15    21    22   ar
    16    22    23   ar
    17    23    24   ar
    18    24    26    1
    19    26    27    1
    20    24    25   ar
    21     6     7    1
    22     7     8    1
    23    11    12   ar
    24    12    13    1
    25    12    14   ar
    26    14    15    1
    27    14     9   ar
    28     8     3    1
    29    25    20   ar
    30    27    28    1
    31    27    29    1
@<TRIPOS>MOLECULE
*****
 29 31 0 0 0
SMALL
GASTEIGER

@<TRIPOS>ATOM
      1 C         139.3551  143.9769  164.6342 C.2     1  UNL1        0.2548
      2 O         138.7549  145.1398  165.3672 O.2     1  UNL1       -0.2694
      3 N         139.8287  144.1450  163.2208 N.am    1  UNL1       -0.2757
      4 C         139.7020  145.4758  162.5405 C.3     1  UNL1        0.0941
      5 C         140.1756  145.6437  161.1272 C.3     1  UNL1        0.0259
      6 C         140.7759  144.4809  160.3942 C.3     1  UNL1        0.0257
      7 C         140.9026  143.1500  161.0744 C.3     1  UNL1        0.0259
      8 C         140.4290  142.9821  162.4877 C.3     1  UNL1        0.0941
      9 C         140.2503  140.8604  166.7674 C.ar    1  UNL1        0.1747
     10 S         140.4841  142.2881  166.3714 S.2     1  UNL1       -0.0459
     11 C         139.4819  142.6461  165.3144 C.ar    1  UNL1        0.0824
     12 C         138.6286  141.4396  165.0571 C.ar    1  UNL1       -0.0017
     13 C         137.4988  141.3521  164.0743 C.3     1  UNL1        0.0323
     14 C         139.1035  140.3359  165.9551 C.ar    1  UNL1        0.0716
     15 BR        138.5319  138.9510  166.0280 Br      1  UNL1       -0.0456
     16 O         141.0269  140.0919  167.7952 O.3     1  UNL1       -0.4692
     17 C         140.5276  140.0120  169.2074 C.3     1  UNL1        0.2061
     18 C         139.7264  142.2343  170.2888 C.3     1  UNL1        0.0040
     19 C         139.4137  140.9085  169.6610 C.3     1  UNL1        0.0474
     20 C         141.2494  144.6489  158.9808 C.ar    1  UNL1       -0.0227
     21 C         140.7383  145.7876  158.1489 C.ar    1  UNL1       -0.0043
     22 C         141.2119  145.9556  156.7355 C.ar    1  UNL1       -0.0006
     23 C         142.1966  144.9848  156.1541 C.ar    1  UNL1       -0.0030
     24 C         142.7077  143.8461  156.9861 C.ar    1  UNL1       -0.0069
     25 C         142.2342  143.6781  158.3994 C.ar    1  UNL1       -0.0072
     26 C         143.6924  142.8754  156.4047 C.3     1  UNL1        0.0922
     27 N         144.5266  143.2708  155.2223 N.3     1  UNL1       -0.3175
     28 H         143.9233  143.4083  154.4114 H       1  UNL1        0.1192
     29 H         145.2030  142.5341  155.0218 H       1  UNL1        0.1192
@<TRIPOS>BOND
     1    18    19    1
     2    19    17    1
     3    17    16    1
     4    16     9    1
     5     9    10   ar
     6    10    11   ar
     7    11     1    1
     8     1     2    2
     9     1     3   am
    10     3     4    1
    11     4     5    1
    12     5     6    1
    13     6    20    1
    14    20    21   ar
    15    21    22   ar
    16    22    23   ar
    17    23    24   ar
    18    24    26    1
    19    26    27    1
    20    24    25   ar
    21     6     7    1
    22     7     8    1
    23    11    12   ar
    24    12    13    1
    25    12    14   ar
    26    14    15    1
    27    14     9   ar
    28     8     3    1
    29    25    20   ar
    30    27    28    1
    31    27    29    1
@<TRIPOS>MOLECULE
*****
 29 31 0 0 0
SMALL
GASTEIGER

@<TRIPOS>ATOM
      1 C         138.6627  139.5330  162.1334 C.2     1  UNL1        0.2548
      2 O         137.9678  138.2471  161.7966 O.2     1  UNL1       -0.2694
      3 N         138.9511  139.8772  163.5646 N.am    1  UNL1       -0.2757
      4 C         138.5446  138.9354  164.6590 C.3     1  UNL1        0.0941
      5 C         138.8330  139.2796  166.0902 C.3     1  UNL1        0.0259
      6 C         139.5280  140.5656  166.4270 C.3     1  UNL1        0.0257
      7 C         139.9345  141.5073  165.3326 C.3     1  UNL1        0.0259
      8 C         139.6460  141.1631  163.9014 C.3     1  UNL1        0.0941
      9 C         139.3760  142.4927  159.7257 C.ar    1  UNL1        0.1747
     10 S         138.7924  141.9484  160.9958 S.2     1  UNL1       -0.0459
     11 C         139.0692  140.4748  161.0389 C.ar    1  UNL1        0.0824
     12 C         139.8239  140.1084  159.7955 C.ar    1  UNL1       -0.0017
     13 C         140.3046  138.7358  159.4282 C.3     1  UNL1        0.0323
     14 C         140.0135  141.3555  158.9839 C.ar    1  UNL1        0.0716
     15 BR        140.7171  141.4490  157.6624 Br      1  UNL1       -0.0456
     16 O         139.3301  143.9231  159.2764 O.3     1  UNL1       -0.4692
     17 C         140.4958  144.8296  159.5394 C.3     1  UNL1        0.2061
     18 C         139.7997  146.1363  161.6743 C.3     1  UNL1        0.0040
     19 C         140.7911  145.2853  160.9377 C.3     1  UNL1        0.0474
     20 C         139.8164  140.9097  167.8582 C.ar    1  UNL1       -0.0227
     21 C         139.6806  139.8624  168.9235 C.ar    1  UNL1       -0.0043
     22 C         139.9691  140.2066  170.3547 C.ar    1  UNL1       -0.0006
     23 C         140.3932  141.5981  170.7207 C.ar    1  UNL1       -0.0030
     24 C         140.5289  142.6454  169.6554 C.ar    1  UNL1       -0.0069
     25 C         140.2405  142.3012  168.2242 C.ar    1  UNL1       -0.0072
     26 C         140.9531  144.0368  170.0213 C.3     1  UNL1        0.0922
     27 N         139.9231  145.0603  170.3980 N.3     1  UNL1       -0.3175
     28 H         139.3379  145.2675  169.5887 H       1  UNL1        0.1192
     29 H         140.3887  145.9131  170.7081 H       1  UNL1        0.1192
@<TRIPOS>BOND
     1    18    19    1
     2    19    17    1
     3    17    16    1
     4    16     9    1
     5     9    10   ar
     6    10    11   ar
     7    11     1    1
     8     1     2    2
     9     1     3   am
    10     3     4    1
    11     4     5    1
    12     5     6    1
    13     6    20    1
    14    20    21   ar
    15    21    22   ar
    16    22    23   ar
    17    23    24   ar
    18    24    26    1
    19    26    27    1
    20    24    25   ar
    21     6     7    1
    22     7     8    1
    23    11    12   ar
    24    12    13    1
    25    12    14   ar
    26    14    15    1
    27    14     9   ar
    28     8     3    1
    29    25    20   ar
    30    27    28    1
    31    27    29    1
@<TRIPOS>MOLECULE
*****
 29 31 0 0 0
SMALL
GASTEIGER

@<TRIPOS>ATOM
      1 C         139.3841  141.9460  161.0545 C.2     1  UNL1        0.2548
      2 O         138.1955  141.3412  160.3678 O.2     1  UNL1       -0.2694
      3 N         139.5269  141.8348  162.5436 N.am    1  UNL1       -0.2757
      4 C         138.4812  141.1188  163.3459 C.3     1  UNL1        0.0941
      5 C         138.6240  141.0076  164.8349 C.3     1  UNL1        0.0259
      6 C         139.8126  141.6124  165.5216 C.3     1  UNL1        0.0257
      7 C         140.8583  142.3284  164.7193 C.3     1  UNL1        0.0259
      8 C         140.7154  142.4396  163.2303 C.3     1  UNL1        0.0941
      9 C         141.6510  144.4025  159.0819 C.ar    1  UNL1        0.1747
     10 S         140.4168  144.1162  159.8847 S.2     1  UNL1       -0.0459
     11 C         140.4298  142.6620  160.2522 C.ar    1  UNL1        0.0824
     12 C         141.6721  142.0495  159.6764 C.ar    1  UNL1       -0.0017
     13 C         142.0868  140.6135  159.8020 C.3     1  UNL1        0.0323
     14 C         142.4269  143.1252  158.9532 C.ar    1  UNL1        0.0716
     15 BR        143.7290  142.9537  158.2284 Br      1  UNL1       -0.0456
     16 O         142.0410  145.7326  158.5084 O.3     1  UNL1       -0.4692
     17 C         141.8132  146.0180  157.0536 C.3     1  UNL1        0.2061
     18 C         139.4919  146.8752  156.2620 C.3     1  UNL1        0.0040
     19 C         140.4711  145.7528  156.4383 C.3     1  UNL1        0.0474
     20 C         139.9554  141.5011  167.0107 C.ar    1  UNL1       -0.0227
     21 C         139.5192  140.2505  167.7146 C.ar    1  UNL1       -0.0043
     22 C         139.6620  140.1393  169.2037 C.ar    1  UNL1       -0.0006
     23 C         140.2410  141.2787  169.9888 C.ar    1  UNL1       -0.0030
     24 C         140.6772  142.5294  169.2848 C.ar    1  UNL1       -0.0069
     25 C         140.5344  142.6406  167.7958 C.ar    1  UNL1       -0.0072
     26 C         141.2563  143.6689  170.0699 C.3     1  UNL1        0.0922
     27 N         142.6385  143.5594  170.6423 N.3     1  UNL1       -0.3175
     28 H         142.6533  142.8335  171.3588 H       1  UNL1        0.1192
     29 H         142.9064  144.4520  171.0570 H       1  UNL1        0.1192
@<TRIPOS>BOND
     1    18    19    1
     2    19    17    1
     3    17    16    1
     4    16     9    1
     5     9    10   ar
     6    10    11   ar
     7    11     1    1
     8     1     2    2
     9     1     3   am
    10     3     4    1
    11     4     5    1
    12     5     6    1
    13     6    20    1
    14    20    21   ar
    15    21    22   ar
    16    22    23   ar
    17    23    24   ar
    18    24    26    1
    19    26    27    1
    20    24    25   ar
    21     6     7    1
    22     7     8    1
    23    11    12   ar
    24    12    13    1
    25    12    14   ar
    26    14    15    1
    27    14     9   ar
    28     8     3    1
    29    25    20   ar
    30    27    28    1
    31    27    29    1
