@<TRIPOS>MOLECULE
*****
 38 43 0 0 0
SMALL
GASTEIGER

@<TRIPOS>ATOM
      1 C         137.8519  142.9637  163.0385 C.3     1  UNL1        0.0932
      2 C         137.6541  141.8128  163.9800 C.3     1  UNL1        0.0286
      3 C         137.6681  140.4064  163.4587 C.3     1  UNL1        0.0193
      4 C         137.8801  140.1508  161.9959 C.3     1  UNL1        0.0700
      5 C         138.0779  141.3016  161.0544 C.3     1  UNL1        0.0193
      6 C         138.0638  142.7081  161.5757 C.3     1  UNL1        0.0286
      7 C         137.8803  140.9387  162.2348 C.3     1  UNL1        0.1562
      8 O         137.8676  142.2105  162.7061 O.3     1  UNL1       -0.3572
      9 N         137.8941  138.7444  161.4746 N.3     1  UNL1       -0.2926
     10 H         137.3142  138.7355  160.6356 H       1  UNL1        0.1236
     11 C         139.1949  138.0931  161.1087 C.3     1  UNL1        0.1152
     12 C         140.3948  138.2661  161.9920 C.ar    1  UNL1        0.0765
     13 C         140.5507  137.4189  163.2200 C.ar    1  UNL1        0.0193
     14 C         141.7506  137.5919  164.1032 C.ar    1  UNL1        0.0411
     15 C         142.7948  138.6122  163.7585 C.ar    1  UNL1        0.1710
     16 C         142.6390  139.4594  162.5306 C.ar    1  UNL1        0.1716
     17 N         141.4390  139.2864  161.6473 N.ar    1  UNL1       -0.2303
     18 N         143.6831  140.4797  162.1859 N.am    1  UNL1       -0.2366
     19 C         143.5272  141.3270  160.9579 C.3     1  UNL1        0.1217
     20 C         144.8830  140.6527  163.0692 C.2     1  UNL1        0.2750
     21 O         145.9272  141.6730  162.7245 O.2     1  UNL1       -0.2704
     22 C         145.0389  139.8055  164.2972 C.3     1  UNL1        0.2901
     23 O         143.9947  138.7852  164.6419 O.3     1  UNL1       -0.4628
     24 C         137.8378  144.3701  163.5597 C.3     1  UNL1        0.0320
     25 C         138.8748  144.8139  164.5487 C.3     1  UNL1        0.0327
     26 C         140.8762  141.8315  167.2597 C.ar    1  UNL1        0.2250
     27 C         142.3172  141.4736  167.0469 C.ar    1  UNL1        0.0593
     28 C         143.0911  142.1098  165.9305 C.ar    1  UNL1        0.0254
     29 C         142.4240  143.1039  165.0269 C.ar    1  UNL1        0.0990
     30 N         143.1979  143.7401  163.9105 N.ar    1  UNL1       -0.2400
     31 C         142.5308  144.7342  163.0068 C.ar    1  UNL1        0.1281
     32 C         141.0897  145.0921  163.2195 C.ar    1  UNL1        0.1566
     33 F         140.4226  146.0862  162.3159 F       1  UNL1       -0.2028
     34 C         140.3158  144.4559  164.3359 C.ar    1  UNL1        0.0261
     35 C         140.9830  143.4618  165.2396 C.ar    1  UNL1        0.1002
     36 N         140.2091  142.8256  166.3560 N.ar    1  UNL1       -0.2104
     37 C         139.3625  139.9121  168.1397 C.3     1  UNL1        0.2542
     38 O         140.1023  141.1953  168.3761 O.3     1  UNL1       -0.4561
@<TRIPOS>BOND
     1    37    38    1
     2    38    26    1
     3    26    27   ar
     4    27    28   ar
     5    28    29   ar
     6    29    30   ar
     7    30    31   ar
     8    31    32   ar
     9    32    33    1
    10    32    34   ar
    11    34    25    1
    12    25    24    1
    13    24     1    1
    14     1     2    1
    15     2     3    1
    16     3     4    1
    17     4     9    1
    18     9    11    1
    19    11    12    1
    20    12    13   ar
    21    13    14   ar
    22    14    15   ar
    23    15    16   ar
    24    16    17   ar
    25    16    18    1
    26    18    19    1
    27    18    20   am
    28    20    21    2
    29    20    22    1
    30    22    23    1
    31     4     5    1
    32     5     6    1
    33     4     7    1
    34     7     8    1
    35    34    35   ar
    36    35    36   ar
    37    36    26   ar
    38    35    29   ar
    39     6     1    1
    40     8     1    1
    41    17    12   ar
    42    23    15    1
    43     9    10    1
@<TRIPOS>MOLECULE
*****
 38 43 0 0 0
SMALL
GASTEIGER

@<TRIPOS>ATOM
      1 C         141.9931  138.0732  164.1531 C.3     1  UNL1        0.0932
      2 C         142.9275  138.6294  165.1863 C.3     1  UNL1        0.0286
      3 C         144.0958  139.4708  164.7656 C.3     1  UNL1        0.0193
      4 C         144.3298  139.7560  163.3117 C.3     1  UNL1        0.0700
      5 C         143.3954  139.1999  162.2784 C.3     1  UNL1        0.0193
      6 C         142.2270  138.3584  162.6992 C.3     1  UNL1        0.0286
      7 C         143.6761  139.2898  163.4939 C.3     1  UNL1        0.1562
      8 O         142.6196  138.5290  163.8742 O.3     1  UNL1       -0.3572
      9 N         145.4982  140.5974  162.8910 N.3     1  UNL1       -0.2926
     10 H         145.5172  140.5860  161.8712 H       1  UNL1        0.1236
     11 C         145.5759  142.0358  163.3095 C.3     1  UNL1        0.1152
     12 C         144.3795  142.9273  163.1558 C.ar    1  UNL1        0.0765
     13 C         143.7942  143.6107  164.3561 C.ar    1  UNL1        0.0193
     14 C         142.5978  144.5022  164.2024 C.ar    1  UNL1        0.0411
     15 C         141.9866  144.7105  162.8485 C.ar    1  UNL1        0.1710
     16 C         142.5718  144.0272  161.6482 C.ar    1  UNL1        0.1716
     17 N         143.7683  143.1356  161.8019 N.ar    1  UNL1       -0.2303
     18 N         141.9606  144.2354  160.2943 N.am    1  UNL1       -0.2366
     19 C         142.5459  143.5521  159.0941 C.3     1  UNL1        0.1217
     20 C         140.7642  145.1270  160.1407 C.2     1  UNL1        0.2750
     21 O         140.1530  145.3352  158.7867 O.2     1  UNL1       -0.2704
     22 C         140.1789  145.8103  161.3409 C.3     1  UNL1        0.2901
     23 O         140.7901  145.6021  162.6948 O.3     1  UNL1       -0.4628
     24 C         140.8248  137.2318  164.5738 C.3     1  UNL1        0.0320
     25 C         139.5389  137.8858  164.9850 C.3     1  UNL1        0.0327
     26 C         140.2700  141.9717  166.7229 C.ar    1  UNL1        0.2250
     27 C         139.7845  143.1925  165.9991 C.ar    1  UNL1        0.0593
     28 C         139.0552  143.0513  164.6959 C.ar    1  UNL1        0.0254
     29 C         138.8115  141.6893  164.1166 C.ar    1  UNL1        0.0990
     30 N         138.0822  141.5481  162.8135 N.ar    1  UNL1       -0.2400
     31 C         137.8385  140.1862  162.2341 C.ar    1  UNL1        0.1281
     32 C         138.3241  138.9653  162.9580 C.ar    1  UNL1        0.1566
     33 F         138.0804  137.6034  162.3786 F       1  UNL1       -0.2028
     34 C         139.0534  139.1065  164.2611 C.ar    1  UNL1        0.0261
     35 C         139.2971  140.4686  164.8405 C.ar    1  UNL1        0.1002
     36 N         140.0263  140.6098  166.1436 N.ar    1  UNL1       -0.2104
     37 C         140.5283  143.1077  169.0452 C.3     1  UNL1        0.2542
     38 O         140.9993  142.1129  168.0261 O.3     1  UNL1       -0.4561
@<TRIPOS>BOND
     1    37    38    1
     2    38    26    1
     3    26    27   ar
     4    27    28   ar
     5    28    29   ar
     6    29    30   ar
     7    30    31   ar
     8    31    32   ar
     9    32    33    1
    10    32    34   ar
    11    34    25    1
    12    25    24    1
    13    24     1    1
    14     1     2    1
    15     2     3    1
    16     3     4    1
    17     4     9    1
    18     9    11    1
    19    11    12    1
    20    12    13   ar
    21    13    14   ar
    22    14    15   ar
    23    15    16   ar
    24    16    17   ar
    25    16    18    1
    26    18    19    1
    27    18    20   am
    28    20    21    2
    29    20    22    1
    30    22    23    1
    31     4     5    1
    32     5     6    1
    33     4     7    1
    34     7     8    1
    35    34    35   ar
    36    35    36   ar
    37    36    26   ar
    38    35    29   ar
    39     6     1    1
    40     8     1    1
    41    17    12   ar
    42    23    15    1
    43     9    10    1
@<TRIPOS>MOLECULE
*****
 38 43 0 0 0
SMALL
GASTEIGER

@<TRIPOS>ATOM
      1 C         141.4146  138.3197  164.7155 C.3     1  UNL1        0.0932
      2 C         140.0871  138.8293  165.1930 C.3     1  UNL1        0.0286
      3 C         138.8996  138.8016  164.2772 C.3     1  UNL1        0.0193
      4 C         139.0395  138.2643  162.8836 C.3     1  UNL1        0.0700
      5 C         140.3670  137.7547  162.4061 C.3     1  UNL1        0.0193
      6 C         141.5546  137.7824  163.3221 C.3     1  UNL1        0.0286
      7 C         139.7186  138.2592  163.3491 C.3     1  UNL1        0.1562
      8 O         140.7925  138.2842  164.1773 O.3     1  UNL1       -0.3572
      9 N         137.8519  138.2366  161.9678 N.3     1  UNL1       -0.2926
     10 H         137.0247  138.3435  162.5549 H       1  UNL1        0.1236
     11 C         137.7326  139.2449  160.8637 C.3     1  UNL1        0.1152
     12 C         138.0875  140.6801  161.1171 C.ar    1  UNL1        0.0765
     13 C         137.4538  141.4192  162.2583 C.ar    1  UNL1        0.0193
     14 C         137.8087  142.8544  162.5117 C.ar    1  UNL1        0.0411
     15 C         138.7973  143.5505  161.6240 C.ar    1  UNL1        0.1710
     16 C         139.4310  142.8115  160.4828 C.ar    1  UNL1        0.1716
     17 N         139.0761  141.3762  160.2294 N.ar    1  UNL1       -0.2303
     18 N         140.4196  143.5076  159.5951 N.am    1  UNL1       -0.2366
     19 C         141.0533  142.7685  158.4539 C.3     1  UNL1        0.1217
     20 C         140.7745  144.9428  159.8485 C.2     1  UNL1        0.2750
     21 O         141.7631  145.6390  158.9608 O.2     1  UNL1       -0.2704
     22 C         140.1408  145.6819  160.9897 C.3     1  UNL1        0.2901
     23 O         139.1522  144.9858  161.8774 O.3     1  UNL1       -0.4628
     24 C         142.6022  138.3474  165.6314 C.3     1  UNL1        0.0320
     25 C         143.1761  139.6602  166.0758 C.3     1  UNL1        0.0327
     26 C         140.9164  143.4572  165.2240 C.ar    1  UNL1        0.2250
     27 C         141.4394  144.4294  164.2085 C.ar    1  UNL1        0.0593
     28 C         142.7156  144.1360  163.4769 C.ar    1  UNL1        0.0254
     29 C         143.4688  142.8703  163.7608 C.ar    1  UNL1        0.0990
     30 N         144.7450  142.5768  163.0293 N.ar    1  UNL1       -0.2400
     31 C         145.4982  141.3112  163.3132 C.ar    1  UNL1        0.1281
     32 C         144.9753  140.3389  164.3287 C.ar    1  UNL1        0.1566
     33 F         145.7285  139.0732  164.6127 F       1  UNL1       -0.2028
     34 C         143.6991  140.6324  165.0603 C.ar    1  UNL1        0.0261
     35 C         142.9458  141.8981  164.7763 C.ar    1  UNL1        0.1002
     36 N         141.6696  142.1916  165.5079 N.ar    1  UNL1       -0.2104
     37 C         138.6973  144.7924  165.4306 C.3     1  UNL1        0.2542
     38 O         139.6402  143.7507  165.9556 O.3     1  UNL1       -0.4561
@<TRIPOS>BOND
     1    37    38    1
     2    38    26    1
     3    26    27   ar
     4    27    28   ar
     5    28    29   ar
     6    29    30   ar
     7    30    31   ar
     8    31    32   ar
     9    32    33    1
    10    32    34   ar
    11    34    25    1
    12    25    24    1
    13    24     1    1
    14     1     2    1
    15     2     3    1
    16     3     4    1
    17     4     9    1
    18     9    11    1
    19    11    12    1
    20    12    13   ar
    21    13    14   ar
    22    14    15   ar
    23    15    16   ar
    24    16    17   ar
    25    16    18    1
    26    18    19    1
    27    18    20   am
    28    20    21    2
    29    20    22    1
    30    22    23    1
    31     4     5    1
    32     5     6    1
    33     4     7    1
    34     7     8    1
    35    34    35   ar
    36    35    36   ar
    37    36    26   ar
    38    35    29   ar
    39     6     1    1
    40     8     1    1
    41    17    12   ar
    42    23    15    1
    43     9    10    1
@<TRIPOS>MOLECULE
*****
 38 43 0 0 0
SMALL
GASTEIGER

@<TRIPOS>ATOM
      1 C         141.6884  138.3312  164.3085 C.3     1  UNL1        0.0932
      2 C         142.8563  138.5417  165.2259 C.3     1  UNL1        0.0286
      3 C         144.0834  139.2463  164.7284 C.3     1  UNL1        0.0193
      4 C         144.1426  139.7406  163.3133 C.3     1  UNL1        0.0700
      5 C         142.9747  139.5301  162.3959 C.3     1  UNL1        0.0193
      6 C         141.7476  138.8254  162.8935 C.3     1  UNL1        0.0286
      7 C         143.4488  139.3600  163.5406 C.3     1  UNL1        0.1562
      8 O         142.3392  138.7228  163.9905 O.3     1  UNL1       -0.3572
      9 N         145.3697  140.4452  162.8158 N.3     1  UNL1       -0.2926
     10 H         145.3772  140.3425  161.8010 H       1  UNL1        0.1236
     11 C         145.5660  141.9040  163.1048 C.3     1  UNL1        0.1152
     12 C         144.3929  142.8382  163.0786 C.ar    1  UNL1        0.0765
     13 C         143.9291  143.4954  164.3448 C.ar    1  UNL1        0.0193
     14 C         142.7559  144.4297  164.3187 C.ar    1  UNL1        0.0411
     15 C         142.0464  144.7068  163.0264 C.ar    1  UNL1        0.1710
     16 C         142.5101  144.0497  161.7603 C.ar    1  UNL1        0.1716
     17 N         143.6834  143.1154  161.7864 N.ar    1  UNL1       -0.2303
     18 N         141.8007  144.3268  160.4681 N.am    1  UNL1       -0.2366
     19 C         142.2645  143.6696  159.2019 C.3     1  UNL1        0.1217
     20 C         140.6275  145.2611  160.4420 C.2     1  UNL1        0.2750
     21 O         139.9180  145.5382  159.1497 O.2     1  UNL1       -0.2704
     22 C         140.1637  145.9183  161.7081 C.3     1  UNL1        0.2901
     23 O         140.8731  145.6411  163.0004 O.3     1  UNL1       -0.4628
     24 C         140.4612  137.6266  164.8061 C.3     1  UNL1        0.0320
     25 C         139.3648  138.4071  165.4685 C.3     1  UNL1        0.0327
     26 C         137.7492  141.0294  162.1878 C.ar    1  UNL1        0.2250
     27 C         137.8534  142.5215  162.3005 C.ar    1  UNL1        0.0593
     28 C         138.4961  143.1395  163.5067 C.ar    1  UNL1        0.0254
     29 C         139.0346  142.2655  164.6003 C.ar    1  UNL1        0.0990
     30 N         139.6773  142.8835  165.8065 N.ar    1  UNL1       -0.2400
     31 C         140.2159  142.0094  166.9000 C.ar    1  UNL1        0.1281
     32 C         140.1117  140.5172  166.7874 C.ar    1  UNL1        0.1566
     33 F         140.6503  139.6431  167.8810 F       1  UNL1       -0.2028
     34 C         139.4690  139.8992  165.5812 C.ar    1  UNL1        0.0261
     35 C         138.9305  140.7734  164.4876 C.ar    1  UNL1        0.1002
     36 N         138.2878  140.1553  163.2814 N.ar    1  UNL1       -0.2104
     37 C         137.9246  140.1332  159.7556 C.3     1  UNL1        0.2542
     38 O         137.1065  140.4114  160.9816 O.3     1  UNL1       -0.4561
@<TRIPOS>BOND
     1    37    38    1
     2    38    26    1
     3    26    27   ar
     4    27    28   ar
     5    28    29   ar
     6    29    30   ar
     7    30    31   ar
     8    31    32   ar
     9    32    33    1
    10    32    34   ar
    11    34    25    1
    12    25    24    1
    13    24     1    1
    14     1     2    1
    15     2     3    1
    16     3     4    1
    17     4     9    1
    18     9    11    1
    19    11    12    1
    20    12    13   ar
    21    13    14   ar
    22    14    15   ar
    23    15    16   ar
    24    16    17   ar
    25    16    18    1
    26    18    19    1
    27    18    20   am
    28    20    21    2
    29    20    22    1
    30    22    23    1
    31     4     5    1
    32     5     6    1
    33     4     7    1
    34     7     8    1
    35    34    35   ar
    36    35    36   ar
    37    36    26   ar
    38    35    29   ar
    39     6     1    1
    40     8     1    1
    41    17    12   ar
    42    23    15    1
    43     9    10    1
@<TRIPOS>MOLECULE
*****
 38 43 0 0 0
SMALL
GASTEIGER

@<TRIPOS>ATOM
      1 C         144.4349  139.6611  163.6684 C.3     1  UNL1        0.0932
      2 C         144.1507  139.5233  162.2020 C.3     1  UNL1        0.0286
      3 C         142.9855  138.7005  161.7380 C.3     1  UNL1        0.0193
      4 C         142.1046  138.0154  162.7403 C.3     1  UNL1        0.0700
      5 C         142.3888  138.1532  164.2067 C.3     1  UNL1        0.0193
      6 C         143.5540  138.9761  164.6707 C.3     1  UNL1        0.0286
      7 C         142.7314  138.4556  163.0425 C.3     1  UNL1        0.1562
      8 O         143.7849  139.1996  163.4621 O.3     1  UNL1       -0.3572
      9 N         140.9394  137.1926  162.2763 N.3     1  UNL1       -0.2926
     10 H         140.6874  136.5767  163.0494 H       1  UNL1        0.1236
     11 C         139.6758  137.8663  161.8299 C.3     1  UNL1        0.1152
     12 C         139.1753  139.0791  162.5569 C.ar    1  UNL1        0.0765
     13 C         138.6170  138.9456  163.9428 C.ar    1  UNL1        0.0193
     14 C         138.1165  140.1583  164.6698 C.ar    1  UNL1        0.0411
     15 C         138.1743  141.5047  164.0111 C.ar    1  UNL1        0.1710
     16 C         138.7325  141.6383  162.6253 C.ar    1  UNL1        0.1716
     17 N         139.2331  140.4255  161.8982 N.ar    1  UNL1       -0.2303
     18 N         138.7903  142.9847  161.9665 N.am    1  UNL1       -0.2366
     19 C         139.3486  143.1182  160.5807 C.3     1  UNL1        0.1217
     20 C         138.2898  144.1974  162.6936 C.2     1  UNL1        0.2750
     21 O         138.3475  145.5438  162.0348 O.2     1  UNL1       -0.2704
     22 C         137.7315  144.0639  164.0795 C.3     1  UNL1        0.2901
     23 O         137.6738  142.7175  164.7382 O.3     1  UNL1       -0.4628
     24 C         145.6000  140.4840  164.1324 C.3     1  UNL1        0.0320
     25 C         145.4649  141.9728  164.2563 C.3     1  UNL1        0.0327
     26 C         142.3356  141.7532  167.4826 C.ar    1  UNL1        0.2250
     27 C         141.0001  142.4047  167.2777 C.ar    1  UNL1        0.0593
     28 C         140.7077  143.1293  165.9973 C.ar    1  UNL1        0.0254
     29 C         141.7508  143.2025  164.9219 C.ar    1  UNL1        0.0990
     30 N         141.4583  143.9272  163.6415 N.ar    1  UNL1       -0.2400
     31 C         142.5014  144.0004  162.5660 C.ar    1  UNL1        0.1281
     32 C         143.8370  143.3489  162.7709 C.ar    1  UNL1        0.1566
     33 F         144.8800  143.4221  161.6955 F       1  UNL1       -0.2028
     34 C         144.1294  142.6242  164.0513 C.ar    1  UNL1        0.0261
     35 C         143.0862  142.5511  165.1268 C.ar    1  UNL1        0.1002
     36 N         143.3787  141.8264  166.4072 N.ar    1  UNL1       -0.2104
     37 C         142.6431  139.5289  168.7895 C.3     1  UNL1        0.2542
     38 O         142.6280  141.0286  168.7630 O.3     1  UNL1       -0.4561
@<TRIPOS>BOND
     1    37    38    1
     2    38    26    1
     3    26    27   ar
     4    27    28   ar
     5    28    29   ar
     6    29    30   ar
     7    30    31   ar
     8    31    32   ar
     9    32    33    1
    10    32    34   ar
    11    34    25    1
    12    25    24    1
    13    24     1    1
    14     1     2    1
    15     2     3    1
    16     3     4    1
    17     4     9    1
    18     9    11    1
    19    11    12    1
    20    12    13   ar
    21    13    14   ar
    22    14    15   ar
    23    15    16   ar
    24    16    17   ar
    25    16    18    1
    26    18    19    1
    27    18    20   am
    28    20    21    2
    29    20    22    1
    30    22    23    1
    31     4     5    1
    32     5     6    1
    33     4     7    1
    34     7     8    1
    35    34    35   ar
    36    35    36   ar
    37    36    26   ar
    38    35    29   ar
    39     6     1    1
    40     8     1    1
    41    17    12   ar
    42    23    15    1
    43     9    10    1
@<TRIPOS>MOLECULE
*****
 38 43 0 0 0
SMALL
GASTEIGER

@<TRIPOS>ATOM
      1 C         137.9873  141.2467  160.9571 C.3     1  UNL1        0.0932
      2 C         138.7381  142.4739  160.5327 C.3     1  UNL1        0.0286
      3 C         138.9131  143.6147  161.4908 C.3     1  UNL1        0.0193
      4 C         138.3373  143.5283  162.8732 C.3     1  UNL1        0.0700
      5 C         137.5865  142.3010  163.2975 C.3     1  UNL1        0.0193
      6 C         137.4115  141.1602  162.3394 C.3     1  UNL1        0.0286
      7 C         138.2157  142.8777  162.3834 C.3     1  UNL1        0.1562
      8 O         138.0574  141.8462  161.5171 O.3     1  UNL1       -0.3572
      9 N         138.5124  144.6691  163.8313 N.3     1  UNL1       -0.2926
     10 H         137.6395  144.7525  164.3524 H       1  UNL1        0.1236
     11 C         139.6193  144.6357  164.8430 C.3     1  UNL1        0.1152
     12 C         141.0025  144.2299  164.4283 C.ar    1  UNL1        0.0765
     13 C         141.8759  145.1957  163.6836 C.ar    1  UNL1        0.0193
     14 C         143.2591  144.7899  163.2689 C.ar    1  UNL1        0.0411
     15 C         143.7689  143.4184  163.5988 C.ar    1  UNL1        0.1710
     16 C         142.8956  142.4526  164.3434 C.ar    1  UNL1        0.1716
     17 N         141.5123  142.8584  164.7582 N.ar    1  UNL1       -0.2303
     18 N         143.4055  141.0810  164.6733 N.am    1  UNL1       -0.2366
     19 C         142.5321  140.1152  165.4180 C.3     1  UNL1        0.1217
     20 C         144.7887  140.6752  164.2586 C.2     1  UNL1        0.2750
     21 O         145.2985  139.3037  164.5885 O.2     1  UNL1       -0.2704
     22 C         145.6621  141.6410  163.5139 C.3     1  UNL1        0.2901
     23 O         145.1522  143.0126  163.1840 O.3     1  UNL1       -0.4628
     24 C         137.8122  140.1059  159.9990 C.3     1  UNL1        0.0320
     25 C         138.9486  139.1609  159.7423 C.3     1  UNL1        0.0327
     26 C         143.4472  139.2698  159.7291 C.ar    1  UNL1        0.2250
     27 C         144.2149  138.6898  160.8798 C.ar    1  UNL1        0.0593
     28 C         143.4830  138.0734  162.0350 C.ar    1  UNL1        0.0254
     29 C         141.9835  138.0371  162.0394 C.ar    1  UNL1        0.0990
     30 N         141.2516  137.4207  163.1946 N.ar    1  UNL1       -0.2400
     31 C         139.7520  137.3844  163.1990 C.ar    1  UNL1        0.1281
     32 C         138.9843  137.9645  162.0482 C.ar    1  UNL1        0.1566
     33 F         137.4848  137.9282  162.0527 F       1  UNL1       -0.2028
     34 C         139.7162  138.5808  160.8931 C.ar    1  UNL1        0.0261
     35 C         141.2158  138.6172  160.8887 C.ar    1  UNL1        0.1002
     36 N         141.9477  139.2335  159.7335 N.ar    1  UNL1       -0.2104
     37 C         143.4348  140.7192  157.5729 C.3     1  UNL1        0.2542
     38 O         144.1791  139.8862  158.5739 O.3     1  UNL1       -0.4561
@<TRIPOS>BOND
     1    37    38    1
     2    38    26    1
     3    26    27   ar
     4    27    28   ar
     5    28    29   ar
     6    29    30   ar
     7    30    31   ar
     8    31    32   ar
     9    32    33    1
    10    32    34   ar
    11    34    25    1
    12    25    24    1
    13    24     1    1
    14     1     2    1
    15     2     3    1
    16     3     4    1
    17     4     9    1
    18     9    11    1
    19    11    12    1
    20    12    13   ar
    21    13    14   ar
    22    14    15   ar
    23    15    16   ar
    24    16    17   ar
    25    16    18    1
    26    18    19    1
    27    18    20   am
    28    20    21    2
    29    20    22    1
    30    22    23    1
    31     4     5    1
    32     5     6    1
    33     4     7    1
    34     7     8    1
    35    34    35   ar
    36    35    36   ar
    37    36    26   ar
    38    35    29   ar
    39     6     1    1
    40     8     1    1
    41    17    12   ar
    42    23    15    1
    43     9    10    1
@<TRIPOS>MOLECULE
*****
 38 43 0 0 0
SMALL
GASTEIGER

@<TRIPOS>ATOM
      1 C         141.6582  145.0227  162.4939 C.3     1  UNL1        0.0932
      2 C         142.4808  144.9079  163.7430 C.3     1  UNL1        0.0286
      3 C         143.7051  144.0414  163.7577 C.3     1  UNL1        0.0193
      4 C         144.1068  143.2896  162.5234 C.3     1  UNL1        0.0700
      5 C         143.2842  143.4044  161.2743 C.3     1  UNL1        0.0193
      6 C         142.0599  144.2710  161.2596 C.3     1  UNL1        0.0286
      7 C         143.4279  143.7520  162.4671 C.3     1  UNL1        0.1562
      8 O         142.3208  144.5355  162.4537 O.3     1  UNL1       -0.3572
      9 N         145.3311  142.4231  162.5381 N.3     1  UNL1       -0.2926
     10 H         146.0636  142.9563  163.0067 H       1  UNL1        0.1236
     11 C         145.2884  141.0756  163.1957 C.3     1  UNL1        0.1152
     12 C         144.1102  140.1728  162.9799 C.ar    1  UNL1        0.0765
     13 C         144.0884  139.2348  161.8095 C.ar    1  UNL1        0.0193
     14 C         142.9102  138.3320  161.5937 C.ar    1  UNL1        0.0411
     15 C         141.7536  138.3671  162.5483 C.ar    1  UNL1        0.1710
     16 C         141.7753  139.3051  163.7186 C.ar    1  UNL1        0.1716
     17 N         142.9536  140.2080  163.9344 N.ar    1  UNL1       -0.2303
     18 N         140.6188  139.3402  164.6731 N.am    1  UNL1       -0.2366
     19 C         140.6405  140.2783  165.8435 C.3     1  UNL1        0.1217
     20 C         139.4405  138.4374  164.4573 C.2     1  UNL1        0.2750
     21 O         138.2840  138.4726  165.4119 O.2     1  UNL1       -0.2704
     22 C         139.4188  137.4994  163.2870 C.3     1  UNL1        0.2901
     23 O         140.5753  137.4642  162.3324 O.3     1  UNL1       -0.4628
     24 C         140.4339  145.8892  162.4792 C.3     1  UNL1        0.0320
     25 C         139.1210  145.3247  162.0233 C.3     1  UNL1        0.0327
     26 C         138.5058  141.7878  159.3100 C.ar    1  UNL1        0.2250
     27 C         138.0125  140.4879  159.8726 C.ar    1  UNL1        0.0593
     28 C         137.7241  140.3668  161.3397 C.ar    1  UNL1        0.0254
     29 C         137.9292  141.5457  162.2441 C.ar    1  UNL1        0.0990
     30 N         137.6409  141.4247  163.7112 N.ar    1  UNL1       -0.2400
     31 C         137.8459  142.6036  164.6156 C.ar    1  UNL1        0.1281
     32 C         138.3393  143.9037  164.0530 C.ar    1  UNL1        0.1566
     33 F         138.5444  145.0826  164.9574 F       1  UNL1       -0.2028
     34 C         138.6276  144.0248  162.5859 C.ar    1  UNL1        0.0261
     35 C         138.4226  142.8457  161.6815 C.ar    1  UNL1        0.1002
     36 N         138.7109  142.9668  160.2144 N.ar    1  UNL1       -0.2104
     37 C         138.8940  143.2639  157.2076 C.3     1  UNL1        0.2542
     38 O         138.7941  141.9089  157.8430 O.3     1  UNL1       -0.4561
@<TRIPOS>BOND
     1    37    38    1
     2    38    26    1
     3    26    27   ar
     4    27    28   ar
     5    28    29   ar
     6    29    30   ar
     7    30    31   ar
     8    31    32   ar
     9    32    33    1
    10    32    34   ar
    11    34    25    1
    12    25    24    1
    13    24     1    1
    14     1     2    1
    15     2     3    1
    16     3     4    1
    17     4     9    1
    18     9    11    1
    19    11    12    1
    20    12    13   ar
    21    13    14   ar
    22    14    15   ar
    23    15    16   ar
    24    16    17   ar
    25    16    18    1
    26    18    19    1
    27    18    20   am
    28    20    21    2
    29    20    22    1
    30    22    23    1
    31     4     5    1
    32     5     6    1
    33     4     7    1
    34     7     8    1
    35    34    35   ar
    36    35    36   ar
    37    36    26   ar
    38    35    29   ar
    39     6     1    1
    40     8     1    1
    41    17    12   ar
    42    23    15    1
    43     9    10    1
@<TRIPOS>MOLECULE
*****
 38 43 0 0 0
SMALL
GASTEIGER

@<TRIPOS>ATOM
      1 C         141.8377  138.0416  164.6041 C.3     1  UNL1        0.0932
      2 C         140.3990  137.7906  164.9464 C.3     1  UNL1        0.0286
      3 C         139.3632  137.7662  163.8617 C.3     1  UNL1        0.0193
      4 C         139.7661  137.9927  162.4347 C.3     1  UNL1        0.0700
      5 C         141.2048  138.2436  162.0923 C.3     1  UNL1        0.0193
      6 C         142.2406  138.2680  163.1771 C.3     1  UNL1        0.0286
      7 C         140.3693  138.0153  162.9946 C.3     1  UNL1        0.1562
      8 O         141.3060  138.0374  163.9754 O.3     1  UNL1       -0.3572
      9 N         138.7303  137.9682  161.3500 N.3     1  UNL1       -0.2926
     10 H         138.2596  137.0655  161.4127 H       1  UNL1        0.1236
     11 C         137.6566  139.0150  161.3146 C.3     1  UNL1        0.1152
     12 C         137.9996  140.4506  161.5814 C.ar    1  UNL1        0.0765
     13 C         137.3584  141.1743  162.7283 C.ar    1  UNL1        0.0193
     14 C         137.7015  142.6100  162.9951 C.ar    1  UNL1        0.0411
     15 C         138.6857  143.3220  162.1152 C.ar    1  UNL1        0.1710
     16 C         139.3269  142.5984  160.9683 C.ar    1  UNL1        0.1716
     17 N         138.9838  141.1626  160.7015 N.ar    1  UNL1       -0.2303
     18 N         140.3111  143.3104  160.0884 N.am    1  UNL1       -0.2366
     19 C         140.9523  142.5867  158.9415 C.3     1  UNL1        0.1217
     20 C         140.6541  144.7460  160.3552 C.2     1  UNL1        0.2750
     21 O         141.6384  145.4580  159.4752 O.2     1  UNL1       -0.2704
     22 C         140.0130  145.4697  161.5021 C.3     1  UNL1        0.2901
     23 O         139.0288  144.7577  162.3820 O.3     1  UNL1       -0.4628
     24 C         142.8735  138.0660  165.6887 C.3     1  UNL1        0.0320
     25 C         143.3362  139.3759  166.2546 C.3     1  UNL1        0.0327
     26 C         143.8223  142.7139  163.2761 C.ar    1  UNL1        0.2250
     27 C         142.8901  143.8886  163.3073 C.ar    1  UNL1        0.0593
     28 C         141.7958  143.9506  164.3313 C.ar    1  UNL1        0.0254
     29 C         141.6337  142.8380  165.3242 C.ar    1  UNL1        0.0990
     30 N         140.5394  142.9000  166.3482 N.ar    1  UNL1       -0.2400
     31 C         140.3774  141.7874  167.3410 C.ar    1  UNL1        0.1281
     32 C         141.3096  140.6126  167.3098 C.ar    1  UNL1        0.1566
     33 F         141.1476  139.5000  168.3026 F       1  UNL1       -0.2028
     34 C         142.4039  140.5506  166.2858 C.ar    1  UNL1        0.0261
     35 C         142.5660  141.6633  165.2929 C.ar    1  UNL1        0.1002
     36 N         143.6603  141.6013  164.2689 N.ar    1  UNL1       -0.2104
     37 C         144.5755  142.5917  160.7926 C.3     1  UNL1        0.2542
     38 O         144.9166  142.6519  162.2520 O.3     1  UNL1       -0.4561
@<TRIPOS>BOND
     1    37    38    1
     2    38    26    1
     3    26    27   ar
     4    27    28   ar
     5    28    29   ar
     6    29    30   ar
     7    30    31   ar
     8    31    32   ar
     9    32    33    1
    10    32    34   ar
    11    34    25    1
    12    25    24    1
    13    24     1    1
    14     1     2    1
    15     2     3    1
    16     3     4    1
    17     4     9    1
    18     9    11    1
    19    11    12    1
    20    12    13   ar
    21    13    14   ar
    22    14    15   ar
    23    15    16   ar
    24    16    17   ar
    25    16    18    1
    26    18    19    1
    27    18    20   am
    28    20    21    2
    29    20    22    1
    30    22    23    1
    31     4     5    1
    32     5     6    1
    33     4     7    1
    34     7     8    1
    35    34    35   ar
    36    35    36   ar
    37    36    26   ar
    38    35    29   ar
    39     6     1    1
    40     8     1    1
    41    17    12   ar
    42    23    15    1
    43     9    10    1
@<TRIPOS>MOLECULE
*****
 38 43 0 0 0
SMALL
GASTEIGER

@<TRIPOS>ATOM
      1 C         138.4390  139.4077  163.7339 C.3     1  UNL1        0.0932
      2 C         138.1304  140.4410  164.7766 C.3     1  UNL1        0.0286
      3 C         137.7540  141.8333  164.3645 C.3     1  UNL1        0.0193
      4 C         137.6863  142.1924  162.9096 C.3     1  UNL1        0.0700
      5 C         137.9950  141.1591  161.8669 C.3     1  UNL1        0.0193
      6 C         138.3713  139.7668  162.2791 C.3     1  UNL1        0.0286
      7 C         137.8972  141.4164  163.0869 C.3     1  UNL1        0.1562
      8 O         138.2375  140.1575  163.4596 O.3     1  UNL1       -0.3572
      9 N         137.3100  143.5846  162.4975 N.3     1  UNL1       -0.2926
     10 H         136.4690  143.8292  163.0202 H       1  UNL1        0.1236
     11 C         138.2814  144.7116  162.6881 C.3     1  UNL1        0.1152
     12 C         139.7560  144.4371  162.6984 C.ar    1  UNL1        0.0765
     13 C         140.5636  144.7235  163.9296 C.ar    1  UNL1        0.0193
     14 C         142.0382  144.4491  163.9399 C.ar    1  UNL1        0.0411
     15 C         142.7053  143.8882  162.7191 C.ar    1  UNL1        0.1710
     16 C         141.8977  143.6018  161.4879 C.ar    1  UNL1        0.1716
     17 N         140.4230  143.8762  161.4775 N.ar    1  UNL1       -0.2303
     18 N         142.5648  143.0409  160.2671 N.am    1  UNL1       -0.2366
     19 C         141.7572  142.7545  159.0359 C.3     1  UNL1        0.1217
     20 C         144.0394  142.7664  160.2774 C.2     1  UNL1        0.2750
     21 O         144.7064  142.2055  159.0566 O.2     1  UNL1       -0.2704
     22 C         144.8470  143.0528  161.5086 C.3     1  UNL1        0.2901
     23 O         144.1800  143.6137  162.7294 O.3     1  UNL1       -0.4628
     24 C         138.8153  138.0155  164.1461 C.3     1  UNL1        0.0320
     25 C         140.1666  137.7485  164.7402 C.3     1  UNL1        0.0327
     26 C         141.6020  141.0240  167.4716 C.ar    1  UNL1        0.2250
     27 C         142.7758  141.8700  167.0759 C.ar    1  UNL1        0.0593
     28 C         143.4710  141.6241  165.7697 C.ar    1  UNL1        0.0254
     29 C         142.9926  140.5323  164.8592 C.ar    1  UNL1        0.0990
     30 N         143.6878  140.2864  163.5530 N.ar    1  UNL1       -0.2400
     31 C         143.2093  139.1946  162.6426 C.ar    1  UNL1        0.1281
     32 C         142.0355  138.3486  163.0383 C.ar    1  UNL1        0.1566
     33 F         141.5571  137.2568  162.1278 F       1  UNL1       -0.2028
     34 C         141.3403  138.5945  164.3445 C.ar    1  UNL1        0.0261
     35 C         141.8188  139.6864  165.2550 C.ar    1  UNL1        0.1002
     36 N         141.1236  139.9322  166.5612 N.ar    1  UNL1       -0.2104
     37 C         139.8846  140.2931  169.2789 C.3     1  UNL1        0.2542
     38 O         140.9068  141.2699  168.7778 O.3     1  UNL1       -0.4561
@<TRIPOS>BOND
     1    37    38    1
     2    38    26    1
     3    26    27   ar
     4    27    28   ar
     5    28    29   ar
     6    29    30   ar
     7    30    31   ar
     8    31    32   ar
     9    32    33    1
    10    32    34   ar
    11    34    25    1
    12    25    24    1
    13    24     1    1
    14     1     2    1
    15     2     3    1
    16     3     4    1
    17     4     9    1
    18     9    11    1
    19    11    12    1
    20    12    13   ar
    21    13    14   ar
    22    14    15   ar
    23    15    16   ar
    24    16    17   ar
    25    16    18    1
    26    18    19    1
    27    18    20   am
    28    20    21    2
    29    20    22    1
    30    22    23    1
    31     4     5    1
    32     5     6    1
    33     4     7    1
    34     7     8    1
    35    34    35   ar
    36    35    36   ar
    37    36    26   ar
    38    35    29   ar
    39     6     1    1
    40     8     1    1
    41    17    12   ar
    42    23    15    1
    43     9    10    1
