@<TRIPOS>MOLECULE
*****
 29 32 0 0 0
SMALL
GASTEIGER

@<TRIPOS>ATOM
      1 O         141.7309  139.6279  160.3467 O.2     1  UNL1       -0.2667
      2 C         142.5152  138.3661  160.1401 C.2     1  UNL1        0.2852
      3 N         142.9732  137.5656  161.3230 N.am    1  UNL1       -0.2998
      4 H         143.4880  136.7374  161.1874 H       1  UNL1        0.1498
      5 C         142.6470  138.0269  162.7126 C.3     1  UNL1        0.0747
      6 C         143.5559  138.9911  163.4155 C.3     1  UNL1        0.0369
      7 C         143.2297  139.4523  164.8050 C.3     1  UNL1        0.0737
      8 N         141.9945  138.9494  165.4916 N.3     1  UNL1       -0.2738
      9 C         141.0856  137.9851  164.7887 C.3     1  UNL1        0.0737
     10 C         141.4119  137.5239  163.3992 C.3     1  UNL1        0.0369
     11 C         141.6683  139.4107  166.8812 C.3     1  UNL1        0.0575
     12 C         142.7200  139.3736  167.9500 C.3     1  UNL1        0.0160
     13 C         142.3938  139.8349  169.3396 C.3     1  UNL1        0.0014
     14 C         141.0158  140.3332  169.6602 C.3     1  UNL1        0.0001
     15 C         139.9640  140.3702  168.5913 C.3     1  UNL1        0.0014
     16 C         140.2903  139.9090  167.2018 C.3     1  UNL1        0.0160
     17 C         142.8414  137.9048  158.7505 C.ar    1  UNL1        0.2573
     18 N         143.5147  138.7198  157.6863 N.ar    1  UNL1       -0.0508
     19 O         143.6411  137.8663  156.4593 O.2     1  UNL1       -0.3322
     20 C         143.0458  136.5238  156.7652 C.ar    1  UNL1        0.2623
     21 N         142.5516  136.5476  158.1812 N.ar    1  UNL1       -0.1830
     22 C         142.9599  135.3616  155.8209 C.ar    1  UNL1        0.0836
     23 C         142.2515  135.5132  154.5073 C.ar    1  UNL1        0.0093
     24 C         142.1655  134.3510  153.5630 C.ar    1  UNL1        0.0299
     25 C         142.7880  133.0371  153.9321 C.ar    1  UNL1        0.1424
     26 F         142.7020  131.8748  152.9878 F       1  UNL1       -0.2041
     27 C         143.4964  132.8854  155.2457 C.ar    1  UNL1        0.0594
     28 C         143.5823  134.0477  156.1900 C.ar    1  UNL1        0.1469
     29 F         144.2907  133.8960  157.5035 F       1  UNL1       -0.2039
@<TRIPOS>BOND
     1     1     2    2
     2     2     3   am
     3     3     5    1
     4     5     6    1
     5     6     7    1
     6     7     8    1
     7     8    11    1
     8    11    12    1
     9    12    13    1
    10    13    14    1
    11    14    15    1
    12    15    16    1
    13     8     9    1
    14     9    10    1
    15     2    17    1
    16    17    18   ar
    17    18    19   ar
    18    19    20   ar
    19    20    22    1
    20    22    23   ar
    21    23    24   ar
    22    24    25   ar
    23    25    26    1
    24    25    27   ar
    25    27    28   ar
    26    28    29    1
    27    20    21   ar
    28    10     5    1
    29    21    17   ar
    30    16    11    1
    31    28    22   ar
    32     3     4    1
@<TRIPOS>MOLECULE
*****
 29 32 0 0 0
SMALL
GASTEIGER

@<TRIPOS>ATOM
      1 O         141.8151  139.7418  160.4740 O.2     1  UNL1       -0.2667
      2 C         142.5244  138.4399  160.2461 C.2     1  UNL1        0.2852
      3 N         142.9193  137.5864  161.4146 N.am    1  UNL1       -0.2998
      4 H         143.3848  136.7319  161.2650 H       1  UNL1        0.1498
      5 C         142.6050  138.0348  162.8111 C.3     1  UNL1        0.0747
      6 C         141.3447  137.5736  163.4811 C.3     1  UNL1        0.0369
      7 C         141.0304  138.0220  164.8775 C.3     1  UNL1        0.0737
      8 N         141.9764  138.9315  165.6040 N.3     1  UNL1       -0.2738
      9 C         143.2367  139.3927  164.9341 C.3     1  UNL1        0.0737
     10 C         143.5510  138.9443  163.5376 C.3     1  UNL1        0.0369
     11 C         141.6621  139.3799  167.0006 C.3     1  UNL1        0.0575
     12 C         140.2914  139.8899  167.3339 C.3     1  UNL1        0.0160
     13 C         139.9771  140.3383  168.7304 C.3     1  UNL1        0.0014
     14 C         141.0334  140.2766  169.7936 C.3     1  UNL1        0.0001
     15 C         142.4041  139.7665  169.4602 C.3     1  UNL1        0.0014
     16 C         142.7184  139.3182  168.0637 C.3     1  UNL1        0.0160
     17 C         142.8388  137.9915  158.8495 C.ar    1  UNL1        0.2573
     18 N         143.5020  138.8168  157.7869 N.ar    1  UNL1       -0.0508
     19 O         143.6182  137.9745  156.5511 O.2     1  UNL1       -0.3322
     20 C         143.0268  136.6288  156.8500 C.ar    1  UNL1        0.2623
     21 N         142.5451  136.6393  158.2705 N.ar    1  UNL1       -0.1830
     22 C         142.9335  135.4751  155.8960 C.ar    1  UNL1        0.0836
     23 C         142.2888  135.6614  154.5544 C.ar    1  UNL1        0.0093
     24 C         142.1955  134.5078  153.6004 C.ar    1  UNL1        0.0299
     25 C         142.7468  133.1677  153.9878 C.ar    1  UNL1        0.1424
     26 F         142.6535  132.0140  153.0337 F       1  UNL1       -0.2041
     27 C         143.3915  132.9812  155.3294 C.ar    1  UNL1        0.0594
     28 C         143.4848  134.1350  156.2834 C.ar    1  UNL1        0.1469
     29 F         144.1295  133.9486  157.6250 F       1  UNL1       -0.2039
@<TRIPOS>BOND
     1     1     2    2
     2     2     3   am
     3     3     5    1
     4     5     6    1
     5     6     7    1
     6     7     8    1
     7     8    11    1
     8    11    12    1
     9    12    13    1
    10    13    14    1
    11    14    15    1
    12    15    16    1
    13     8     9    1
    14     9    10    1
    15     2    17    1
    16    17    18   ar
    17    18    19   ar
    18    19    20   ar
    19    20    22    1
    20    22    23   ar
    21    23    24   ar
    22    24    25   ar
    23    25    26    1
    24    25    27   ar
    25    27    28   ar
    26    28    29    1
    27    20    21   ar
    28    10     5    1
    29    21    17   ar
    30    16    11    1
    31    28    22   ar
    32     3     4    1
@<TRIPOS>MOLECULE
*****
 29 32 0 0 0
SMALL
GASTEIGER

@<TRIPOS>ATOM
      1 O         144.3618  140.3596  161.4530 O.2     1  UNL1       -0.2667
      2 C         143.1739  139.6006  160.9403 C.2     1  UNL1        0.2852
      3 N         141.9487  139.4592  161.7940 N.am    1  UNL1       -0.2998
      4 H         141.1691  138.9610  161.4574 H       1  UNL1        0.1498
      5 C         141.9113  140.0768  163.1605 C.3     1  UNL1        0.0747
      6 C         142.4555  139.3246  164.3386 C.3     1  UNL1        0.0369
      7 C         142.4181  139.9422  165.7050 C.3     1  UNL1        0.0737
      8 N         141.8365  141.3120  165.8933 N.3     1  UNL1       -0.2738
      9 C         141.2924  142.0642  164.7151 C.3     1  UNL1        0.0737
     10 C         141.3298  141.4466  163.3487 C.3     1  UNL1        0.0369
     11 C         141.7991  141.9296  167.2598 C.3     1  UNL1        0.0575
     12 C         140.5602  142.6308  167.7323 C.3     1  UNL1        0.0160
     13 C         140.5228  143.2484  169.0988 C.3     1  UNL1        0.0014
     14 C         141.7244  143.1648  169.9927 C.3     1  UNL1        0.0001
     15 C         142.9634  142.4636  169.5201 C.3     1  UNL1        0.0014
     16 C         143.0008  141.8460  168.1537 C.3     1  UNL1        0.0160
     17 C         143.2113  138.9830  159.5738 C.ar    1  UNL1        0.2573
     18 N         143.8275  139.5903  158.3484 N.ar    1  UNL1       -0.0508
     19 O         143.6361  138.6323  157.2101 O.2     1  UNL1       -0.3322
     20 C         142.9017  137.4330  157.7320 C.ar    1  UNL1        0.2623
     21 N         142.6392  137.6498  159.1928 N.ar    1  UNL1       -0.1830
     22 C         142.5003  136.2286  156.9333 C.ar    1  UNL1        0.0836
     23 C         143.2042  134.9207  157.1432 C.ar    1  UNL1        0.0093
     24 C         142.8027  133.7162  156.3445 C.ar    1  UNL1        0.0299
     25 C         141.6974  133.8195  155.3358 C.ar    1  UNL1        0.1424
     26 F         141.2959  132.6149  154.5371 F       1  UNL1       -0.2041
     27 C         140.9934  135.1273  155.1258 C.ar    1  UNL1        0.0594
     28 C         141.3949  136.3318  155.9246 C.ar    1  UNL1        0.1469
     29 F         140.6909  137.6397  155.7146 F       1  UNL1       -0.2039
@<TRIPOS>BOND
     1     1     2    2
     2     2     3   am
     3     3     5    1
     4     5     6    1
     5     6     7    1
     6     7     8    1
     7     8    11    1
     8    11    12    1
     9    12    13    1
    10    13    14    1
    11    14    15    1
    12    15    16    1
    13     8     9    1
    14     9    10    1
    15     2    17    1
    16    17    18   ar
    17    18    19   ar
    18    19    20   ar
    19    20    22    1
    20    22    23   ar
    21    23    24   ar
    22    24    25   ar
    23    25    26    1
    24    25    27   ar
    25    27    28   ar
    26    28    29    1
    27    20    21   ar
    28    10     5    1
    29    21    17   ar
    30    16    11    1
    31    28    22   ar
    32     3     4    1
@<TRIPOS>MOLECULE
*****
 29 32 0 0 0
SMALL
GASTEIGER

@<TRIPOS>ATOM
      1 O         144.4457  140.1596  161.4591 O.2     1  UNL1       -0.2667
      2 C         143.2083  139.5334  160.8873 C.2     1  UNL1        0.2852
      3 N         141.9399  139.5125  161.6876 N.am    1  UNL1       -0.2998
      4 H         141.1278  139.1015  161.3124 H       1  UNL1        0.1498
      5 C         141.9087  140.1179  163.0598 C.3     1  UNL1        0.0747
      6 C         141.5359  141.5602  163.2349 C.3     1  UNL1        0.0369
      7 C         141.5047  142.1654  164.6069 C.3     1  UNL1        0.0737
      8 N         141.8464  141.3284  165.8039 N.3     1  UNL1       -0.2738
      9 C         142.2192  139.8861  165.6288 C.3     1  UNL1        0.0737
     10 C         142.2503  139.2808  164.2567 C.3     1  UNL1        0.0369
     11 C         141.8152  141.9338  167.1760 C.3     1  UNL1        0.0575
     12 C         140.5632  142.5898  167.6780 C.3     1  UNL1        0.0160
     13 C         140.5320  143.1952  169.0501 C.3     1  UNL1        0.0014
     14 C         141.7528  143.1445  169.9202 C.3     1  UNL1        0.0001
     15 C         143.0049  142.4884  169.4181 C.3     1  UNL1        0.0014
     16 C         143.0360  141.8831  168.0460 C.3     1  UNL1        0.0160
     17 C         143.2395  138.9280  159.5152 C.ar    1  UNL1        0.2573
     18 N         143.8837  139.5287  158.3010 N.ar    1  UNL1       -0.0508
     19 O         143.6743  138.5877  157.1518 O.2     1  UNL1       -0.3322
     20 C         142.9008  137.4054  157.6558 C.ar    1  UNL1        0.2623
     21 N         142.6321  137.6158  159.1165 N.ar    1  UNL1       -0.1830
     22 C         142.4714  136.2208  156.8420 C.ar    1  UNL1        0.0836
     23 C         141.5812  136.4126  155.6500 C.ar    1  UNL1        0.0093
     24 C         141.1518  135.2280  154.8363 C.ar    1  UNL1        0.0299
     25 C         141.6126  133.8515  155.2144 C.ar    1  UNL1        0.1424
     26 F         141.1831  132.6669  154.4006 F       1  UNL1       -0.2041
     27 C         142.5028  133.6596  156.4065 C.ar    1  UNL1        0.0594
     28 C         142.9321  134.8443  157.2202 C.ar    1  UNL1        0.1469
     29 F         143.8223  134.6525  158.4122 F       1  UNL1       -0.2039
@<TRIPOS>BOND
     1     1     2    2
     2     2     3   am
     3     3     5    1
     4     5     6    1
     5     6     7    1
     6     7     8    1
     7     8    11    1
     8    11    12    1
     9    12    13    1
    10    13    14    1
    11    14    15    1
    12    15    16    1
    13     8     9    1
    14     9    10    1
    15     2    17    1
    16    17    18   ar
    17    18    19   ar
    18    19    20   ar
    19    20    22    1
    20    22    23   ar
    21    23    24   ar
    22    24    25   ar
    23    25    26    1
    24    25    27   ar
    25    27    28   ar
    26    28    29    1
    27    20    21   ar
    28    10     5    1
    29    21    17   ar
    30    16    11    1
    31    28    22   ar
    32     3     4    1
@<TRIPOS>MOLECULE
*****
 29 32 0 0 0
SMALL
GASTEIGER

@<TRIPOS>ATOM
      1 O         144.1937  139.0672  159.6801 O.2     1  UNL1       -0.2667
      2 C         142.8736  139.6373  159.2532 C.2     1  UNL1        0.2852
      3 N         142.8013  140.5581  158.0713 N.am    1  UNL1       -0.2998
      4 H         141.9348  140.9323  157.7911 H       1  UNL1        0.1498
      5 C         144.0491  140.9088  157.3163 C.3     1  UNL1        0.0747
      6 C         144.9105  142.0465  157.7784 C.3     1  UNL1        0.0369
      7 C         146.1583  142.3972  157.0235 C.3     1  UNL1        0.0737
      8 N         146.5447  141.6102  155.8064 N.3     1  UNL1       -0.2738
      9 C         145.6833  140.4725  155.3443 C.3     1  UNL1        0.0737
     10 C         144.4355  140.1218  156.0992 C.3     1  UNL1        0.0369
     11 C         147.7926  141.9609  155.0514 C.3     1  UNL1        0.0575
     12 C         149.1321  141.5418  155.5805 C.3     1  UNL1        0.0160
     13 C         150.3799  141.8926  154.8256 C.3     1  UNL1        0.0014
     14 C         150.2882  142.6624  153.5415 C.3     1  UNL1        0.0001
     15 C         148.9486  143.0816  153.0124 C.3     1  UNL1        0.0014
     16 C         147.7008  142.7308  153.7673 C.3     1  UNL1        0.0160
     17 C         141.6257  139.2866  160.0081 C.ar    1  UNL1        0.2573
     18 N         140.3596  138.7435  159.4148 N.ar    1  UNL1       -0.0508
     19 O         139.3762  138.5386  160.5289 O.2     1  UNL1       -0.3322
     20 C         140.0347  138.9551  161.8107 C.ar    1  UNL1        0.2623
     21 N         141.4249  139.4173  161.4889 N.ar    1  UNL1       -0.1830
     22 C         139.4123  138.9161  163.1748 C.ar    1  UNL1        0.0836
     23 C         139.3947  137.6351  163.9550 C.ar    1  UNL1        0.0093
     24 C         138.7722  137.5961  165.3191 C.ar    1  UNL1        0.0299
     25 C         138.1673  138.8382  165.9032 C.ar    1  UNL1        0.1424
     26 F         137.5448  138.7992  167.2674 F       1  UNL1       -0.2041
     27 C         138.1848  140.1193  165.1231 C.ar    1  UNL1        0.0594
     28 C         138.8073  140.1582  163.7590 C.ar    1  UNL1        0.1469
     29 F         138.8248  141.4394  162.9788 F       1  UNL1       -0.2039
@<TRIPOS>BOND
     1     1     2    2
     2     2     3   am
     3     3     5    1
     4     5     6    1
     5     6     7    1
     6     7     8    1
     7     8    11    1
     8    11    12    1
     9    12    13    1
    10    13    14    1
    11    14    15    1
    12    15    16    1
    13     8     9    1
    14     9    10    1
    15     2    17    1
    16    17    18   ar
    17    18    19   ar
    18    19    20   ar
    19    20    22    1
    20    22    23   ar
    21    23    24   ar
    22    24    25   ar
    23    25    26    1
    24    25    27   ar
    25    27    28   ar
    26    28    29    1
    27    20    21   ar
    28    10     5    1
    29    21    17   ar
    30    16    11    1
    31    28    22   ar
    32     3     4    1
@<TRIPOS>MOLECULE
*****
 29 32 0 0 0
SMALL
GASTEIGER

@<TRIPOS>ATOM
      1 O         143.3990  138.2232  159.4059 O.2     1  UNL1       -0.2667
      2 C         142.5353  137.7324  158.2821 C.2     1  UNL1        0.2852
      3 N         141.1154  138.2021  158.1672 N.am    1  UNL1       -0.2998
      4 H         140.5484  137.8801  157.4296 H       1  UNL1        0.1498
      5 C         140.5592  139.1627  159.1763 C.3     1  UNL1        0.0747
      6 C         139.9292  138.6461  160.4358 C.3     1  UNL1        0.0369
      7 C         139.3731  139.6066  161.4447 C.3     1  UNL1        0.0737
      8 N         139.4469  141.0837  161.1943 N.3     1  UNL1       -0.2738
      9 C         140.0769  141.6003  159.9349 C.3     1  UNL1        0.0737
     10 C         140.6330  140.6398  158.9259 C.3     1  UNL1        0.0369
     11 C         138.8908  142.0442  162.2034 C.3     1  UNL1        0.0575
     12 C         138.3577  141.5346  163.5095 C.3     1  UNL1        0.0160
     13 C         137.8015  142.4951  164.5186 C.3     1  UNL1        0.0014
     14 C         137.7784  143.9652  164.2214 C.3     1  UNL1        0.0001
     15 C         138.3115  144.4748  162.9152 C.3     1  UNL1        0.0014
     16 C         138.8677  143.5143  161.9062 C.3     1  UNL1        0.0160
     17 C         143.0914  136.7719  157.2730 C.ar    1  UNL1        0.2573
     18 N         143.8552  137.1380  156.0350 N.ar    1  UNL1       -0.0508
     19 O         144.2173  135.8690  155.3216 O.2     1  UNL1       -0.3322
     20 C         143.6773  134.7188  156.1188 C.ar    1  UNL1        0.2623
     21 N         142.9815  135.2769  157.3248 N.ar    1  UNL1       -0.1830
     22 C         143.8098  133.2658  155.7711 C.ar    1  UNL1        0.0836
     23 C         143.1246  132.7204  154.5532 C.ar    1  UNL1        0.0093
     24 C         143.2572  131.2674  154.2055 C.ar    1  UNL1        0.0299
     25 C         144.0749  130.3596  155.0755 C.ar    1  UNL1        0.1424
     26 F         144.2075  128.9065  154.7278 F       1  UNL1       -0.2041
     27 C         144.7602  130.9048  156.2934 C.ar    1  UNL1        0.0594
     28 C         144.6276  132.3580  156.6411 C.ar    1  UNL1        0.1469
     29 F         145.3129  132.9032  157.8590 F       1  UNL1       -0.2039
@<TRIPOS>BOND
     1     1     2    2
     2     2     3   am
     3     3     5    1
     4     5     6    1
     5     6     7    1
     6     7     8    1
     7     8    11    1
     8    11    12    1
     9    12    13    1
    10    13    14    1
    11    14    15    1
    12    15    16    1
    13     8     9    1
    14     9    10    1
    15     2    17    1
    16    17    18   ar
    17    18    19   ar
    18    19    20   ar
    19    20    22    1
    20    22    23   ar
    21    23    24   ar
    22    24    25   ar
    23    25    26    1
    24    25    27   ar
    25    27    28   ar
    26    28    29    1
    27    20    21   ar
    28    10     5    1
    29    21    17   ar
    30    16    11    1
    31    28    22   ar
    32     3     4    1
@<TRIPOS>MOLECULE
*****
 29 32 0 0 0
SMALL
GASTEIGER

@<TRIPOS>ATOM
      1 O         139.1470  138.0568  159.3020 O.2     1  UNL1       -0.2667
      2 C         139.6832  139.3564  158.7789 C.2     1  UNL1        0.2852
      3 N         140.6564  139.3611  157.6376 N.am    1  UNL1       -0.2998
      4 H         141.0083  140.2141  157.2943 H       1  UNL1        0.1498
      5 C         141.0936  138.0662  157.0193 C.3     1  UNL1        0.0747
      6 C         140.2615  137.4289  155.9462 C.3     1  UNL1        0.0369
      7 C         140.6987  136.1341  155.3280 C.3     1  UNL1        0.0737
      8 N         141.9679  135.4765  155.7828 N.3     1  UNL1       -0.2738
      9 C         142.7999  136.1139  156.8558 C.3     1  UNL1        0.0737
     10 C         142.3627  137.4087  157.4741 C.3     1  UNL1        0.0369
     11 C         142.4050  134.1816  155.1645 C.3     1  UNL1        0.0575
     12 C         141.8785  133.7774  153.8194 C.3     1  UNL1        0.0160
     13 C         142.3156  132.4825  153.2011 C.3     1  UNL1        0.0014
     14 C         143.2793  131.5919  153.9279 C.3     1  UNL1        0.0001
     15 C         143.8058  131.9963  155.2731 C.3     1  UNL1        0.0014
     16 C         143.3686  133.2911  155.8913 C.3     1  UNL1        0.0160
     17 C         139.2460  140.6513  159.3972 C.ar    1  UNL1        0.2573
     18 N         138.6365  141.8136  158.6709 N.ar    1  UNL1       -0.0508
     19 O         138.3554  142.8919  159.6752 O.2     1  UNL1       -0.3322
     20 C         138.7913  142.3959  161.0221 C.ar    1  UNL1        0.2623
     21 N         139.3417  141.0111  160.8502 N.ar    1  UNL1       -0.1830
     22 C         138.6939  143.1519  162.3138 C.ar    1  UNL1        0.0836
     23 C         139.6150  144.3057  162.5790 C.ar    1  UNL1        0.0093
     24 C         139.5175  145.0617  163.8708 C.ar    1  UNL1        0.0299
     25 C         138.4990  144.6640  164.8976 C.ar    1  UNL1        0.1424
     26 F         138.4015  145.4200  166.1895 F       1  UNL1       -0.2041
     27 C         137.5778  143.5101  164.6325 C.ar    1  UNL1        0.0594
     28 C         137.6753  142.7541  163.3407 C.ar    1  UNL1        0.1469
     29 F         136.7541  141.6003  163.0756 F       1  UNL1       -0.2039
@<TRIPOS>BOND
     1     1     2    2
     2     2     3   am
     3     3     5    1
     4     5     6    1
     5     6     7    1
     6     7     8    1
     7     8    11    1
     8    11    12    1
     9    12    13    1
    10    13    14    1
    11    14    15    1
    12    15    16    1
    13     8     9    1
    14     9    10    1
    15     2    17    1
    16    17    18   ar
    17    18    19   ar
    18    19    20   ar
    19    20    22    1
    20    22    23   ar
    21    23    24   ar
    22    24    25   ar
    23    25    26    1
    24    25    27   ar
    25    27    28   ar
    26    28    29    1
    27    20    21   ar
    28    10     5    1
    29    21    17   ar
    30    16    11    1
    31    28    22   ar
    32     3     4    1
@<TRIPOS>MOLECULE
*****
 29 32 0 0 0
SMALL
GASTEIGER

@<TRIPOS>ATOM
      1 O         141.5654  144.5589  160.2066 O.2     1  UNL1       -0.2667
      2 C         140.2339  144.4106  159.5320 C.2     1  UNL1        0.2852
      3 N         139.0845  143.7902  160.2695 N.am    1  UNL1       -0.2998
      4 H         138.2106  143.6928  159.8267 H       1  UNL1        0.1498
      5 C         139.2666  143.3180  161.6816 C.3     1  UNL1        0.0747
      6 C         139.8218  141.9505  161.9494 C.3     1  UNL1        0.0369
      7 C         140.0039  141.4784  163.3614 C.3     1  UNL1        0.0737
      8 N         139.6308  142.3737  164.5056 N.3     1  UNL1       -0.2738
      9 C         139.0756  143.7411  164.2378 C.3     1  UNL1        0.0737
     10 C         138.8935  144.2133  162.8258 C.3     1  UNL1        0.0369
     11 C         139.8129  141.9015  165.9177 C.3     1  UNL1        0.0575
     12 C         140.4126  142.8172  166.9433 C.3     1  UNL1        0.0160
     13 C         140.5947  142.3449  168.3554 C.3     1  UNL1        0.0014
     14 C         140.1771  140.9570  168.7418 C.3     1  UNL1        0.0001
     15 C         139.5774  140.0413  167.7162 C.3     1  UNL1        0.0014
     16 C         139.3953  140.5136  166.3042 C.3     1  UNL1        0.0160
     17 C         140.0518  144.8828  158.1199 C.ar    1  UNL1        0.2573
     18 N         139.8507  144.0092  156.9172 N.ar    1  UNL1       -0.0508
     19 O         139.7134  144.8980  155.7166 O.2     1  UNL1       -0.3322
     20 C         139.8296  146.3208  156.1774 C.ar    1  UNL1        0.2623
     21 N         140.0388  146.3114  157.6627 N.ar    1  UNL1       -0.1830
     22 C         139.7506  147.5390  155.3059 C.ar    1  UNL1        0.0836
     23 C         140.3844  147.5310  153.9464 C.ar    1  UNL1        0.0093
     24 C         140.3054  148.7492  153.0749 C.ar    1  UNL1        0.0299
     25 C         139.5926  149.9755  153.5628 C.ar    1  UNL1        0.1424
     26 F         139.5136  151.1938  152.6913 F       1  UNL1       -0.2041
     27 C         138.9588  149.9836  154.9224 C.ar    1  UNL1        0.0594
     28 C         139.0378  148.7653  155.7938 C.ar    1  UNL1        0.1469
     29 F         138.4040  148.7733  157.1534 F       1  UNL1       -0.2039
@<TRIPOS>BOND
     1     1     2    2
     2     2     3   am
     3     3     5    1
     4     5     6    1
     5     6     7    1
     6     7     8    1
     7     8    11    1
     8    11    12    1
     9    12    13    1
    10    13    14    1
    11    14    15    1
    12    15    16    1
    13     8     9    1
    14     9    10    1
    15     2    17    1
    16    17    18   ar
    17    18    19   ar
    18    19    20   ar
    19    20    22    1
    20    22    23   ar
    21    23    24   ar
    22    24    25   ar
    23    25    26    1
    24    25    27   ar
    25    27    28   ar
    26    28    29    1
    27    20    21   ar
    28    10     5    1
    29    21    17   ar
    30    16    11    1
    31    28    22   ar
    32     3     4    1
@<TRIPOS>MOLECULE
*****
 29 32 0 0 0
SMALL
GASTEIGER

@<TRIPOS>ATOM
      1 O         141.1611  145.4913  161.5869 O.2     1  UNL1       -0.2667
      2 C         140.5145  144.3466  160.8647 C.2     1  UNL1        0.2852
      3 N         140.1981  143.0783  161.6004 N.am    1  UNL1       -0.2998
      4 H         139.7737  142.3270  161.1264 H       1  UNL1        0.1498
      5 C         140.5283  142.9548  163.0585 C.3     1  UNL1        0.0747
      6 C         141.9213  142.5971  163.4843 C.3     1  UNL1        0.0369
      7 C         142.2515  142.4736  164.9423 C.3     1  UNL1        0.0737
      8 N         141.1885  142.7076  165.9744 N.3     1  UNL1       -0.2738
      9 C         139.7954  143.0653  165.5486 C.3     1  UNL1        0.0737
     10 C         139.4653  143.1888  164.0906 C.3     1  UNL1        0.0369
     11 C         141.5187  142.5841  167.4324 C.3     1  UNL1        0.0575
     12 C         142.8375  142.0090  167.8567 C.3     1  UNL1        0.0160
     13 C         143.1676  141.8854  169.3147 C.3     1  UNL1        0.0014
     14 C         142.1789  142.3369  170.3484 C.3     1  UNL1        0.0001
     15 C         140.8601  142.9120  169.9241 C.3     1  UNL1        0.0014
     16 C         140.5300  143.0356  168.4662 C.3     1  UNL1        0.0160
     17 C         140.1843  144.4702  159.4066 C.ar    1  UNL1        0.2573
     18 N         139.5535  143.4105  158.5527 N.ar    1  UNL1       -0.0508
     19 O         139.4063  143.9605  157.1648 O.2     1  UNL1       -0.3322
     20 C         139.9462  145.3600  157.1612 C.ar    1  UNL1        0.2623
     21 N         140.4270  145.6750  158.5467 N.ar    1  UNL1       -0.1830
     22 C         139.9964  146.2825  155.9796 C.ar    1  UNL1        0.0836
     23 C         140.7132  145.8631  154.7304 C.ar    1  UNL1        0.0093
     24 C         140.7634  146.7856  153.5488 C.ar    1  UNL1        0.0299
     25 C         140.0969  148.1276  153.6162 C.ar    1  UNL1        0.1424
     26 F         140.1471  149.0502  152.4345 F       1  UNL1       -0.2041
     27 C         139.3800  148.5472  154.8653 C.ar    1  UNL1        0.0594
     28 C         139.3299  147.6246  156.0470 C.ar    1  UNL1        0.1469
     29 F         138.6130  148.0441  157.2961 F       1  UNL1       -0.2039
@<TRIPOS>BOND
     1     1     2    2
     2     2     3   am
     3     3     5    1
     4     5     6    1
     5     6     7    1
     6     7     8    1
     7     8    11    1
     8    11    12    1
     9    12    13    1
    10    13    14    1
    11    14    15    1
    12    15    16    1
    13     8     9    1
    14     9    10    1
    15     2    17    1
    16    17    18   ar
    17    18    19   ar
    18    19    20   ar
    19    20    22    1
    20    22    23   ar
    21    23    24   ar
    22    24    25   ar
    23    25    26    1
    24    25    27   ar
    25    27    28   ar
    26    28    29    1
    27    20    21   ar
    28    10     5    1
    29    21    17   ar
    30    16    11    1
    31    28    22   ar
    32     3     4    1
