@<TRIPOS>MOLECULE
*****
 31 34 0 0 0
SMALL
GASTEIGER

@<TRIPOS>ATOM
      1 C         144.1747  142.6899  158.5523 C.2     1  UNL1        0.2419
      2 O         145.6720  142.6097  158.5137 O.2     1  UNL1       -0.2734
      3 N         143.4438  142.4527  159.8406 N.am    1  UNL1       -0.2694
      4 C         141.9465  142.5329  159.8792 C.3     1  UNL1        0.1184
      5 C         141.2157  142.2957  161.1674 C.3     1  UNL1        0.1299
      6 N         141.9821  141.9782  162.4171 N.ar    1  UNL1       -0.3005
      7 C         143.4795  141.8979  162.3785 C.ar    1  UNL1        0.1416
      8 N         143.9618  141.5685  163.7601 N.ar    1  UNL1       -0.2279
      9 C         142.7625  141.4452  164.6526 C.ar    1  UNL1        0.1126
     10 C         141.5390  141.6984  163.8225 C.ar    1  UNL1        0.1318
     11 C         144.2103  142.1352  161.0902 C.3     1  UNL1        0.1578
     12 C         142.7831  141.1249  166.1179 C.ar    1  UNL1        0.0226
     13 C         142.6732  139.7008  166.5759 C.ar    1  UNL1        0.0017
     14 C         142.6938  139.3804  168.0411 C.ar    1  UNL1        0.0024
     15 C         142.8242  140.4842  169.0483 C.ar    1  UNL1        0.0296
     16 C         142.9340  141.9084  168.5903 C.ar    1  UNL1        0.1402
     17 F         143.0644  143.0122  169.5977 F       1  UNL1       -0.2042
     18 C         142.9135  142.2287  167.1251 C.ar    1  UNL1        0.0312
     19 N         142.9668  144.4150  157.0308 N.3     1  UNL1       -0.3135
     20 C         143.4082  143.0074  157.3027 C.3     1  UNL1        0.1517
     21 H         142.4627  144.4481  156.1447 H       1  UNL1        0.1193
     22 H         143.7837  145.0237  156.9802 H       1  UNL1        0.1193
     23 N         140.1213  141.6757  164.3120 N.pl3   1  UNL1       -0.2980
     24 H         139.5781  142.4963  164.2850 H       1  UNL1        0.1536
     25 C         139.5312  140.4028  164.8425 C.ar    1  UNL1        0.0495
     26 C         138.9877  140.3532  166.2396 C.ar    1  UNL1        0.0169
     27 C         138.3976  139.0802  166.7701 C.ar    1  UNL1        0.0309
     28 C         138.3511  137.8568  165.9033 C.ar    1  UNL1        0.1402
     29 F         137.7610  136.5839  166.4338 F       1  UNL1       -0.2042
     30 C         138.8946  137.9064  164.5062 C.ar    1  UNL1        0.0309
     31 C         139.4847  139.1794  163.9758 C.ar    1  UNL1        0.0169
@<TRIPOS>BOND
     1    19    20    1
     2    20     1    1
     3     1     2    2
     4     1     3   am
     5     3     4    1
     6     4     5    1
     7     5     6    1
     8     6     7   ar
     9     7     8   ar
    10     8     9   ar
    11     9    12    1
    12    12    13   ar
    13    13    14   ar
    14    14    15   ar
    15    15    16   ar
    16    16    17    1
    17    16    18   ar
    18     9    10   ar
    19    10    23    1
    20    23    25    1
    21    25    26   ar
    22    26    27   ar
    23    27    28   ar
    24    28    29    1
    25    28    30   ar
    26    30    31   ar
    27     7    11    1
    28    11     3    1
    29    10     6   ar
    30    31    25   ar
    31    18    12   ar
    32    19    21    1
    33    19    22    1
    34    23    24    1
@<TRIPOS>MOLECULE
*****
 31 34 0 0 0
SMALL
GASTEIGER

@<TRIPOS>ATOM
      1 C         140.1677  140.5613  170.4614 C.2     1  UNL1        0.2419
      2 O         139.2022  139.5153  170.9344 O.2     1  UNL1       -0.2734
      3 N         140.3960  140.7620  168.9926 N.am    1  UNL1       -0.2694
      4 C         141.3614  141.8080  168.5196 C.3     1  UNL1        0.1184
      5 C         141.5897  142.0086  167.0507 C.3     1  UNL1        0.1299
      6 N         140.8525  141.1632  166.0548 N.ar    1  UNL1       -0.3005
      7 C         139.8871  140.1173  166.5277 C.ar    1  UNL1        0.1416
      8 N         139.3092  139.4399  165.3205 N.ar    1  UNL1       -0.2279
      9 C         139.9176  140.0674  164.1014 C.ar    1  UNL1        0.1126
     10 C         140.8714  141.1324  164.5552 C.ar    1  UNL1        0.1318
     11 C         139.6588  139.9166  167.9966 C.3     1  UNL1        0.1578
     12 C         139.6238  139.6951  162.6783 C.ar    1  UNL1        0.0226
     13 C         140.7204  139.1736  161.7977 C.ar    1  UNL1        0.0017
     14 C         140.4267  138.8014  160.3747 C.ar    1  UNL1        0.0024
     15 C         139.0363  138.9507  159.8322 C.ar    1  UNL1        0.0296
     16 C         137.9396  139.4722  160.7127 C.ar    1  UNL1        0.1402
     17 F         136.5491  139.6215  160.1701 F       1  UNL1       -0.2042
     18 C         138.2333  139.8444  162.1358 C.ar    1  UNL1        0.0312
     19 N         142.2252  140.9464  172.0003 N.3     1  UNL1       -0.3135
     20 C         140.9049  141.4067  171.4574 C.3     1  UNL1        0.1517
     21 H         142.5815  141.6383  172.6597 H       1  UNL1        0.1193
     22 H         142.8881  140.8350  171.2332 H       1  UNL1        0.1193
     23 N         141.6988  142.0122  163.6657 N.pl3   1  UNL1       -0.2980
     24 H         142.6374  141.7806  163.4797 H       1  UNL1        0.1536
     25 C         141.0963  143.2449  163.0596 C.ar    1  UNL1        0.0495
     26 C         139.8793  143.8667  163.6779 C.ar    1  UNL1        0.0169
     27 C         139.2768  145.0995  163.0717 C.ar    1  UNL1        0.0309
     28 C         139.8912  145.7103  161.8471 C.ar    1  UNL1        0.1402
     29 F         139.2886  146.9429  161.2410 F       1  UNL1       -0.2042
     30 C         141.1081  145.0884  161.2288 C.ar    1  UNL1        0.0309
     31 C         141.7106  143.8557  161.8350 C.ar    1  UNL1        0.0169
@<TRIPOS>BOND
     1    19    20    1
     2    20     1    1
     3     1     2    2
     4     1     3   am
     5     3     4    1
     6     4     5    1
     7     5     6    1
     8     6     7   ar
     9     7     8   ar
    10     8     9   ar
    11     9    12    1
    12    12    13   ar
    13    13    14   ar
    14    14    15   ar
    15    15    16   ar
    16    16    17    1
    17    16    18   ar
    18     9    10   ar
    19    10    23    1
    20    23    25    1
    21    25    26   ar
    22    26    27   ar
    23    27    28   ar
    24    28    29    1
    25    28    30   ar
    26    30    31   ar
    27     7    11    1
    28    11     3    1
    29    10     6   ar
    30    31    25   ar
    31    18    12   ar
    32    19    21    1
    33    19    22    1
    34    23    24    1
@<TRIPOS>MOLECULE
*****
 31 34 0 0 0
SMALL
GASTEIGER

@<TRIPOS>ATOM
      1 C         139.8488  144.4977  154.9172 C.2     1  UNL1        0.2419
      2 O         138.5199  143.8962  154.5680 O.2     1  UNL1       -0.2734
      3 N         140.2953  144.5507  156.3482 N.am    1  UNL1       -0.2694
      4 C         141.6243  145.1522  156.6975 C.3     1  UNL1        0.1184
      5 C         142.0708  145.2052  158.1285 C.3     1  UNL1        0.1299
      6 N         141.1883  144.6566  159.2103 N.ar    1  UNL1       -0.3005
      7 C         139.8594  144.0551  158.8610 C.ar    1  UNL1        0.1416
      8 N         139.2092  143.5971  160.1329 N.ar    1  UNL1       -0.2279
      9 C         140.1364  143.9156  161.2682 C.ar    1  UNL1        0.1126
     10 C         141.3596  144.5704  160.6980 C.ar    1  UNL1        0.1318
     11 C         139.4129  144.0022  157.4300 C.3     1  UNL1        0.1578
     12 C         139.8847  143.6294  162.7190 C.ar    1  UNL1        0.0226
     13 C         140.2159  142.2808  163.2859 C.ar    1  UNL1        0.0017
     14 C         139.9642  141.9946  164.7367 C.ar    1  UNL1        0.0024
     15 C         139.3814  143.0572  165.6205 C.ar    1  UNL1        0.0296
     16 C         139.0502  144.4058  165.0536 C.ar    1  UNL1        0.1402
     17 F         138.4673  145.4684  165.9376 F       1  UNL1       -0.2042
     18 C         139.3018  144.6920  163.6029 C.ar    1  UNL1        0.0312
     19 N         140.3947  146.3551  153.1845 N.3     1  UNL1       -0.3135
     20 C         140.7313  145.0462  153.8354 C.3     1  UNL1        0.1517
     21 H         141.0963  146.5733  152.4771 H       1  UNL1        0.1193
     22 H         140.3821  147.0921  153.8896 H       1  UNL1        0.1193
     23 N         142.5457  145.0540  161.4784 N.pl3   1  UNL1       -0.2980
     24 H         142.7473  146.0167  161.5216 H       1  UNL1        0.1536
     25 C         143.4249  144.0710  162.1930 C.ar    1  UNL1        0.0495
     26 C         143.5787  144.1474  163.6832 C.ar    1  UNL1        0.0169
     27 C         144.4579  143.1643  164.3978 C.ar    1  UNL1        0.0309
     28 C         145.1832  142.1048  163.6222 C.ar    1  UNL1        0.1402
     29 F         146.0623  141.1218  164.3369 F       1  UNL1       -0.2042
     30 C         145.0294  142.0285  162.1321 C.ar    1  UNL1        0.0309
     31 C         144.1503  143.0115  161.4175 C.ar    1  UNL1        0.0169
@<TRIPOS>BOND
     1    19    20    1
     2    20     1    1
     3     1     2    2
     4     1     3   am
     5     3     4    1
     6     4     5    1
     7     5     6    1
     8     6     7   ar
     9     7     8   ar
    10     8     9   ar
    11     9    12    1
    12    12    13   ar
    13    13    14   ar
    14    14    15   ar
    15    15    16   ar
    16    16    17    1
    17    16    18   ar
    18     9    10   ar
    19    10    23    1
    20    23    25    1
    21    25    26   ar
    22    26    27   ar
    23    27    28   ar
    24    28    29    1
    25    28    30   ar
    26    30    31   ar
    27     7    11    1
    28    11     3    1
    29    10     6   ar
    30    31    25   ar
    31    18    12   ar
    32    19    21    1
    33    19    22    1
    34    23    24    1
@<TRIPOS>MOLECULE
*****
 31 34 0 0 0
SMALL
GASTEIGER

@<TRIPOS>ATOM
      1 C         140.0347  144.9098  157.5655 C.2     1  UNL1        0.2419
      2 O         139.0485  144.3278  156.5967 O.2     1  UNL1       -0.2734
      3 N         140.2789  144.2358  158.8831 N.am    1  UNL1       -0.2694
      4 C         141.2651  144.8179  159.8518 C.3     1  UNL1        0.1184
      5 C         141.5093  144.1439  161.1695 C.3     1  UNL1        0.1299
      6 N         140.7672  142.8879  161.5183 N.ar    1  UNL1       -0.3005
      7 C         139.7810  142.3058  160.5496 C.ar    1  UNL1        0.1416
      8 N         139.2028  141.0662  161.1652 N.ar    1  UNL1       -0.2279
      9 C         139.8317  140.8821  162.5145 C.ar    1  UNL1        0.1126
     10 C         140.7986  142.0079  162.7327 C.ar    1  UNL1        0.1318
     11 C         139.5368  142.9798  159.2319 C.3     1  UNL1        0.1578
     12 C         139.5442  139.7677  163.4767 C.ar    1  UNL1        0.0226
     13 C         140.1922  138.4281  163.2880 C.ar    1  UNL1        0.0017
     14 C         139.9048  137.3138  164.2501 C.ar    1  UNL1        0.0024
     15 C         138.9694  137.5391  165.4009 C.ar    1  UNL1        0.0296
     16 C         138.3214  138.8787  165.5895 C.ar    1  UNL1        0.1402
     17 F         137.3860  139.1040  166.7403 F       1  UNL1       -0.2042
     18 C         138.6088  139.9930  164.6274 C.ar    1  UNL1        0.0312
     19 N         140.3014  147.0281  156.0850 N.3     1  UNL1       -0.3135
     20 C         140.7768  146.1658  157.2166 C.3     1  UNL1        0.1517
     21 H         140.9190  147.8342  155.9891 H       1  UNL1        0.1193
     22 H         139.3521  147.3480  156.2768 H       1  UNL1        0.1193
     23 N         141.6478  142.2172  163.9513 N.pl3   1  UNL1       -0.2980
     24 H         141.7992  143.1270  164.2955 H       1  UNL1        0.1536
     25 C         142.2662  141.0402  164.6457 C.ar    1  UNL1        0.0495
     26 C         141.8698  140.7064  166.0533 C.ar    1  UNL1        0.0169
     27 C         142.4883  139.5293  166.7477 C.ar    1  UNL1        0.0309
     28 C         143.5032  138.6860  166.0343 C.ar    1  UNL1        0.1402
     29 F         144.1217  137.5090  166.7286 F       1  UNL1       -0.2042
     30 C         143.8996  139.0198  164.6266 C.ar    1  UNL1        0.0309
     31 C         143.2811  140.1968  163.9324 C.ar    1  UNL1        0.0169
@<TRIPOS>BOND
     1    19    20    1
     2    20     1    1
     3     1     2    2
     4     1     3   am
     5     3     4    1
     6     4     5    1
     7     5     6    1
     8     6     7   ar
     9     7     8   ar
    10     8     9   ar
    11     9    12    1
    12    12    13   ar
    13    13    14   ar
    14    14    15   ar
    15    15    16   ar
    16    16    17    1
    17    16    18   ar
    18     9    10   ar
    19    10    23    1
    20    23    25    1
    21    25    26   ar
    22    26    27   ar
    23    27    28   ar
    24    28    29    1
    25    28    30   ar
    26    30    31   ar
    27     7    11    1
    28    11     3    1
    29    10     6   ar
    30    31    25   ar
    31    18    12   ar
    32    19    21    1
    33    19    22    1
    34    23    24    1
@<TRIPOS>MOLECULE
*****
 31 34 0 0 0
SMALL
GASTEIGER

@<TRIPOS>ATOM
      1 C         142.9919  138.3805  159.8927 C.2     1  UNL1        0.2419
      2 O         143.1053  136.8849  159.9067 O.2     1  UNL1       -0.2734
      3 N         142.6927  139.1219  161.1619 N.am    1  UNL1       -0.2694
      4 C         142.5793  140.6175  161.1480 C.3     1  UNL1        0.1184
      5 C         142.2800  141.3588  162.4172 C.3     1  UNL1        0.1299
      6 N         142.0942  140.6045  163.7004 N.ar    1  UNL1       -0.3005
      7 C         142.2076  139.1089  163.7143 C.ar    1  UNL1        0.1416
      8 N         141.9764  138.6395  165.1201 N.ar    1  UNL1       -0.2279
      9 C         141.7200  139.8451  165.9750 C.ar    1  UNL1        0.1126
     10 C         141.7928  141.0595  165.0975 C.ar    1  UNL1        0.1318
     11 C         142.5069  138.3676  162.4451 C.3     1  UNL1        0.1578
     12 C         141.4400  139.8377  167.4487 C.ar    1  UNL1        0.0226
     13 C         142.5254  139.4699  168.4165 C.ar    1  UNL1        0.0017
     14 C         142.2454  139.4625  169.8901 C.ar    1  UNL1        0.0024
     15 C         140.8800  139.8227  170.3958 C.ar    1  UNL1        0.0296
     16 C         139.7946  140.1904  169.4280 C.ar    1  UNL1        0.1402
     17 F         138.4291  140.5507  169.9339 F       1  UNL1       -0.2042
     18 C         140.0746  140.1979  167.9544 C.ar    1  UNL1        0.0312
     19 N         143.3458  138.3892  157.3189 N.3     1  UNL1       -0.3135
     20 C         143.1777  139.1348  158.6096 C.3     1  UNL1        0.1517
     21 H         143.4592  139.0546  156.5542 H       1  UNL1        0.1193
     22 H         142.5212  137.8134  157.1490 H       1  UNL1        0.1193
     23 N         141.5984  142.4797  165.5396 N.pl3   1  UNL1       -0.2980
     24 H         141.8808  142.7577  166.4408 H       1  UNL1        0.1536
     25 C         140.9738  143.4762  164.6087 C.ar    1  UNL1        0.0495
     26 C         141.8246  144.5176  163.9441 C.ar    1  UNL1        0.0169
     27 C         141.1998  145.5142  163.0131 C.ar    1  UNL1        0.0309
     28 C         139.7243  145.4693  162.7467 C.ar    1  UNL1        0.1402
     29 F         139.0997  146.4658  161.8158 F       1  UNL1       -0.2042
     30 C         138.8736  144.4279  163.4113 C.ar    1  UNL1        0.0309
     31 C         139.4983  143.4314  164.3422 C.ar    1  UNL1        0.0169
@<TRIPOS>BOND
     1    19    20    1
     2    20     1    1
     3     1     2    2
     4     1     3   am
     5     3     4    1
     6     4     5    1
     7     5     6    1
     8     6     7   ar
     9     7     8   ar
    10     8     9   ar
    11     9    12    1
    12    12    13   ar
    13    13    14   ar
    14    14    15   ar
    15    15    16   ar
    16    16    17    1
    17    16    18   ar
    18     9    10   ar
    19    10    23    1
    20    23    25    1
    21    25    26   ar
    22    26    27   ar
    23    27    28   ar
    24    28    29    1
    25    28    30   ar
    26    30    31   ar
    27     7    11    1
    28    11     3    1
    29    10     6   ar
    30    31    25   ar
    31    18    12   ar
    32    19    21    1
    33    19    22    1
    34    23    24    1
@<TRIPOS>MOLECULE
*****
 31 34 0 0 0
SMALL
GASTEIGER

@<TRIPOS>ATOM
      1 C         141.1379  138.0314  156.0249 C.2     1  UNL1        0.2419
      2 O         139.8129  138.3333  155.3900 O.2     1  UNL1       -0.2734
      3 N         141.2781  138.0606  157.5181 N.am    1  UNL1       -0.2694
      4 C         142.6031  137.7587  158.1530 C.3     1  UNL1        0.1184
      5 C         142.7432  137.7879  159.6462 C.3     1  UNL1        0.1299
      6 N         141.5584  138.1189  160.5044 N.ar    1  UNL1       -0.3005
      7 C         140.2334  138.4207  159.8694 C.ar    1  UNL1        0.1416
      8 N         139.2502  138.7117  160.9643 N.ar    1  UNL1       -0.2279
      9 C         139.9676  138.5898  162.2760 C.ar    1  UNL1        0.1126
     10 C         141.3942  138.2233  161.9917 C.ar    1  UNL1        0.1318
     11 C         140.0932  138.3916  158.3763 C.3     1  UNL1        0.1578
     12 C         139.3645  138.7977  163.6336 C.ar    1  UNL1        0.0226
     13 C         139.2054  140.1860  164.1789 C.ar    1  UNL1        0.0017
     14 C         138.6022  140.3939  165.5365 C.ar    1  UNL1        0.0024
     15 C         138.1582  139.2136  166.3486 C.ar    1  UNL1        0.0296
     16 C         138.3173  137.8254  165.8033 C.ar    1  UNL1        0.1402
     17 F         137.8733  136.6450  166.6156 F       1  UNL1       -0.2042
     18 C         138.9205  137.6174  164.4458 C.ar    1  UNL1        0.0312
     19 N         142.2322  136.5946  154.1573 N.3     1  UNL1       -0.3135
     20 C         142.3228  137.7004  155.1667 C.3     1  UNL1        0.1517
     21 H         143.1224  136.5082  153.6668 H       1  UNL1        0.1193
     22 H         141.4935  136.8062  153.4865 H       1  UNL1        0.1193
     23 N         142.4680  138.0005  163.0151 N.pl3   1  UNL1       -0.2980
     24 H         143.0648  137.2211  162.9406 H       1  UNL1        0.1536
     25 C         142.6324  138.9651  164.1519 C.ar    1  UNL1        0.0495
     26 C         142.4690  138.4926  165.5661 C.ar    1  UNL1        0.0169
     27 C         142.6335  139.4573  166.7030 C.ar    1  UNL1        0.0309
     28 C         142.9614  140.8945  166.4256 C.ar    1  UNL1        0.1402
     29 F         143.1258  141.8591  167.5625 F       1  UNL1       -0.2042
     30 C         143.1247  141.3670  165.0114 C.ar    1  UNL1        0.0309
     31 C         142.9603  140.4024  163.8746 C.ar    1  UNL1        0.0169
@<TRIPOS>BOND
     1    19    20    1
     2    20     1    1
     3     1     2    2
     4     1     3   am
     5     3     4    1
     6     4     5    1
     7     5     6    1
     8     6     7   ar
     9     7     8   ar
    10     8     9   ar
    11     9    12    1
    12    12    13   ar
    13    13    14   ar
    14    14    15   ar
    15    15    16   ar
    16    16    17    1
    17    16    18   ar
    18     9    10   ar
    19    10    23    1
    20    23    25    1
    21    25    26   ar
    22    26    27   ar
    23    27    28   ar
    24    28    29    1
    25    28    30   ar
    26    30    31   ar
    27     7    11    1
    28    11     3    1
    29    10     6   ar
    30    31    25   ar
    31    18    12   ar
    32    19    21    1
    33    19    22    1
    34    23    24    1
@<TRIPOS>MOLECULE
*****
 31 34 0 0 0
SMALL
GASTEIGER

@<TRIPOS>ATOM
      1 C         141.2312  137.9344  155.2773 C.2     1  UNL1        0.2419
      2 O         139.9263  138.3070  154.6383 O.2     1  UNL1       -0.2734
      3 N         141.3641  137.9427  156.7714 N.am    1  UNL1       -0.2694
      4 C         142.6690  137.5701  157.4104 C.3     1  UNL1        0.1184
      5 C         142.8019  137.5785  158.9044 C.3     1  UNL1        0.1299
      6 N         141.6299  137.9595  159.7595 N.ar    1  UNL1       -0.3005
      7 C         140.3250  138.3321  159.1205 C.ar    1  UNL1        0.1416
      8 N         139.3511  138.6611  160.2130 N.ar    1  UNL1       -0.2279
      9 C         140.0542  138.4918  161.5272 C.ar    1  UNL1        0.1126
     10 C         141.4626  138.0582  161.2469 C.ar    1  UNL1        0.1318
     11 C         140.1921  138.3237  157.6265 C.3     1  UNL1        0.1578
     12 C         139.4543  138.7166  162.8835 C.ar    1  UNL1        0.0226
     13 C         139.3711  137.5843  163.8638 C.ar    1  UNL1        0.0017
     14 C         138.7713  137.8091  165.2201 C.ar    1  UNL1        0.0024
     15 C         138.2545  139.1661  165.5961 C.ar    1  UNL1        0.0296
     16 C         138.3377  140.2984  164.6158 C.ar    1  UNL1        0.1402
     17 F         137.8209  141.6555  164.9918 F       1  UNL1       -0.2042
     18 C         138.9376  140.0736  163.2595 C.ar    1  UNL1        0.0312
     19 N         142.4696  136.1873  153.8063 N.3     1  UNL1       -0.3135
     20 C         142.4032  137.5533  154.4222 C.3     1  UNL1        0.1517
     21 H         143.3277  136.1012  153.2616 H       1  UNL1        0.1193
     22 H         141.6641  136.0501  153.1957 H       1  UNL1        0.1193
     23 N         142.5182  137.7732  162.2737 N.pl3   1  UNL1       -0.2980
     24 H         142.6365  136.8582  162.6173 H       1  UNL1        0.1536
     25 C         143.3938  138.8823  162.7770 C.ar    1  UNL1        0.0495
     26 C         143.7082  138.9845  164.2401 C.ar    1  UNL1        0.0169
     27 C         144.5838  140.0937  164.7434 C.ar    1  UNL1        0.0309
     28 C         145.1449  141.1006  163.7835 C.ar    1  UNL1        0.1402
     29 F         146.0205  142.2096  164.2868 F       1  UNL1       -0.2042
     30 C         144.8305  140.9983  162.3204 C.ar    1  UNL1        0.0309
     31 C         143.9550  139.8892  161.8172 C.ar    1  UNL1        0.0169
@<TRIPOS>BOND
     1    19    20    1
     2    20     1    1
     3     1     2    2
     4     1     3   am
     5     3     4    1
     6     4     5    1
     7     5     6    1
     8     6     7   ar
     9     7     8   ar
    10     8     9   ar
    11     9    12    1
    12    12    13   ar
    13    13    14   ar
    14    14    15   ar
    15    15    16   ar
    16    16    17    1
    17    16    18   ar
    18     9    10   ar
    19    10    23    1
    20    23    25    1
    21    25    26   ar
    22    26    27   ar
    23    27    28   ar
    24    28    29    1
    25    28    30   ar
    26    30    31   ar
    27     7    11    1
    28    11     3    1
    29    10     6   ar
    30    31    25   ar
    31    18    12   ar
    32    19    21    1
    33    19    22    1
    34    23    24    1
@<TRIPOS>MOLECULE
*****
 31 34 0 0 0
SMALL
GASTEIGER

@<TRIPOS>ATOM
      1 C         141.0656  144.1977  158.3716 C.2     1  UNL1        0.2419
      2 O         139.6899  144.4946  157.8528 O.2     1  UNL1       -0.2734
      3 N         141.2404  143.3136  159.5707 N.am    1  UNL1       -0.2694
      4 C         142.6161  143.0167  160.0895 C.3     1  UNL1        0.1184
      5 C         142.7909  142.1326  161.2886 C.3     1  UNL1        0.1299
      6 N         141.5899  141.5454  161.9689 N.ar    1  UNL1       -0.3005
      7 C         140.2142  141.8423  161.4501 C.ar    1  UNL1        0.1416
      8 N         139.2255  141.1262  162.3218 N.ar    1  UNL1       -0.2279
      9 C         139.9903  140.3867  163.3793 C.ar    1  UNL1        0.1126
     10 C         141.4515  140.6458  163.1612 C.ar    1  UNL1        0.1318
     11 C         140.0394  142.7264  160.2510 C.3     1  UNL1        0.1578
     12 C         139.3978  139.5372  164.4644 C.ar    1  UNL1        0.0226
     13 C         139.0173  138.1145  164.1796 C.ar    1  UNL1        0.0017
     14 C         138.4249  137.2650  165.2647 C.ar    1  UNL1        0.0024
     15 C         138.2129  137.8383  166.6345 C.ar    1  UNL1        0.0296
     16 C         138.5934  139.2610  166.9192 C.ar    1  UNL1        0.1402
     17 F         138.3814  139.8342  168.2891 F       1  UNL1       -0.2042
     18 C         139.1858  140.1105  165.8342 C.ar    1  UNL1        0.0312
     19 N         142.5402  146.2564  157.7909 N.3     1  UNL1       -0.3135
     20 C         142.2665  144.7849  157.6913 C.3     1  UNL1        0.1517
     21 H         143.3900  146.4799  157.2729 H       1  UNL1        0.1193
     22 H         142.6612  146.5142  158.7703 H       1  UNL1        0.1193
     23 N         142.5769  140.1010  163.9898 N.pl3   1  UNL1       -0.2980
     24 H         143.2745  139.5478  163.5697 H       1  UNL1        0.1536
     25 C         142.6394  140.3990  165.4586 C.ar    1  UNL1        0.0495
     26 C         142.6092  139.2768  166.4535 C.ar    1  UNL1        0.0169
     27 C         142.6717  139.5749  167.9224 C.ar    1  UNL1        0.0309
     28 C         142.7643  140.9951  168.3962 C.ar    1  UNL1        0.1402
     29 F         142.8268  141.2931  169.8649 F       1  UNL1       -0.2042
     30 C         142.7945  142.1172  167.4012 C.ar    1  UNL1        0.0309
     31 C         142.7320  141.8191  165.9325 C.ar    1  UNL1        0.0169
@<TRIPOS>BOND
     1    19    20    1
     2    20     1    1
     3     1     2    2
     4     1     3   am
     5     3     4    1
     6     4     5    1
     7     5     6    1
     8     6     7   ar
     9     7     8   ar
    10     8     9   ar
    11     9    12    1
    12    12    13   ar
    13    13    14   ar
    14    14    15   ar
    15    15    16   ar
    16    16    17    1
    17    16    18   ar
    18     9    10   ar
    19    10    23    1
    20    23    25    1
    21    25    26   ar
    22    26    27   ar
    23    27    28   ar
    24    28    29    1
    25    28    30   ar
    26    30    31   ar
    27     7    11    1
    28    11     3    1
    29    10     6   ar
    30    31    25   ar
    31    18    12   ar
    32    19    21    1
    33    19    22    1
    34    23    24    1
@<TRIPOS>MOLECULE
*****
 31 34 0 0 0
SMALL
GASTEIGER

@<TRIPOS>ATOM
      1 C         142.0439  140.1794  170.2798 C.2     1  UNL1        0.2419
      2 O         143.3230  139.5354  170.7263 O.2     1  UNL1       -0.2734
      3 N         141.7137  140.2574  168.8187 N.am    1  UNL1       -0.2694
      4 C         140.4347  140.9014  168.3723 C.3     1  UNL1        0.1184
      5 C         140.1044  140.9795  166.9112 C.3     1  UNL1        0.1299
      6 N         141.0532  140.4136  165.8965 N.ar    1  UNL1       -0.3005
      7 C         142.3322  139.7696  166.3430 C.ar    1  UNL1        0.1416
      8 N         143.0671  139.3027  165.1215 N.ar    1  UNL1       -0.2279
      9 C         142.2422  139.6581  163.9202 C.ar    1  UNL1        0.1126
     10 C         140.9976  140.3447  164.3992 C.ar    1  UNL1        0.1318
     11 C         142.6624  139.6915  167.8041 C.3     1  UNL1        0.1578
     12 C         142.5993  139.3764  162.4907 C.ar    1  UNL1        0.0226
     13 C         142.3279  138.0235  161.9025 C.ar    1  UNL1        0.0017
     14 C         142.6850  137.7418  160.4731 C.ar    1  UNL1        0.0024
     15 C         143.3134  138.8130  159.6320 C.ar    1  UNL1        0.0296
     16 C         143.5848  140.1659  160.2202 C.ar    1  UNL1        0.1402
     17 F         144.2133  141.2371  159.3790 F       1  UNL1       -0.2042
     18 C         143.2278  140.4476  161.6496 C.ar    1  UNL1        0.0312
     19 N         141.3101  142.1289  171.8324 N.3     1  UNL1       -0.3135
     20 C         141.0952  140.7453  171.2945 C.3     1  UNL1        0.1517
     21 H         140.5769  142.3494  172.5064 H       1  UNL1        0.1193
     22 H         141.2798  142.8005  171.0653 H       1  UNL1        0.1193
     23 N         139.8915  140.8701  163.5329 N.pl3   1  UNL1       -0.2980
     24 H         139.1903  140.2610  163.2064 H       1  UNL1        0.1536
     25 C         139.8537  142.3235  163.1639 C.ar    1  UNL1        0.0495
     26 C         139.2456  143.3207  164.1051 C.ar    1  UNL1        0.0169
     27 C         139.2078  144.7742  163.7361 C.ar    1  UNL1        0.0309
     28 C         139.7781  145.2304  162.4259 C.ar    1  UNL1        0.1402
     29 F         139.7403  146.6838  162.0570 F       1  UNL1       -0.2042
     30 C         140.3862  144.2332  161.4847 C.ar    1  UNL1        0.0309
     31 C         140.4239  142.7798  161.8537 C.ar    1  UNL1        0.0169
@<TRIPOS>BOND
     1    19    20    1
     2    20     1    1
     3     1     2    2
     4     1     3   am
     5     3     4    1
     6     4     5    1
     7     5     6    1
     8     6     7   ar
     9     7     8   ar
    10     8     9   ar
    11     9    12    1
    12    12    13   ar
    13    13    14   ar
    14    14    15   ar
    15    15    16   ar
    16    16    17    1
    17    16    18   ar
    18     9    10   ar
    19    10    23    1
    20    23    25    1
    21    25    26   ar
    22    26    27   ar
    23    27    28   ar
    24    28    29    1
    25    28    30   ar
    26    30    31   ar
    27     7    11    1
    28    11     3    1
    29    10     6   ar
    30    31    25   ar
    31    18    12   ar
    32    19    21    1
    33    19    22    1
    34    23    24    1
