@<TRIPOS>MOLECULE
*****
 38 42 0 0 0
SMALL
GASTEIGER

@<TRIPOS>ATOM
      1 O         143.3009  139.8217  157.1993 O.2     1  UNL1       -0.2733
      2 C         143.2865  138.3746  156.8050 C.2     1  UNL1        0.2426
      3 N         142.9503  137.3237  157.8212 N.am    1  UNL1       -0.3018
      4 H         142.9408  136.3738  157.5624 H       1  UNL1        0.1495
      5 C         142.6284  137.7200  159.2316 C.3     1  UNL1        0.1035
      6 C         141.4756  138.4046  159.9041 C.3     1  UNL1        0.0933
      7 N         142.1732  138.2806  161.2262 N.3     1  UNL1       -0.2711
      8 C         143.3260  137.5961  160.5537 C.3     1  UNL1        0.0933
      9 C         141.8513  138.6770  162.6366 C.3     1  UNL1        0.0576
     10 C         141.1476  137.7125  163.5446 C.3     1  UNL1        0.0163
     11 C         140.8257  138.1088  164.9551 C.3     1  UNL1        0.0057
     12 C         141.2076  139.4696  165.4575 C.3     1  UNL1        0.0225
     13 C         141.9114  140.4341  164.5495 C.3     1  UNL1        0.0057
     14 C         142.2332  140.0378  163.1390 C.3     1  UNL1        0.0163
     15 C         140.8857  139.8659  166.8680 C.ar    1  UNL1       -0.0193
     16 C         139.4863  139.7194  167.3874 C.ar    1  UNL1       -0.0010
     17 C         139.1644  140.1156  168.7978 C.ar    1  UNL1        0.0399
     18 C         140.2420  140.6585  169.6888 C.ar    1  UNL1        0.1764
     19 C         141.6416  140.8051  169.1694 C.ar    1  UNL1        0.1761
     20 C         141.9635  140.4088  167.7590 C.ar    1  UNL1        0.0359
     21 O         142.4891  141.3661  170.2726 O.3     1  UNL1       -0.4346
     22 C         141.6134  141.5662  171.4738 C.3     1  UNL1        0.4294
     23 O         140.2246  141.1289  171.1131 O.3     1  UNL1       -0.4346
     24 C         143.6084  137.9782  155.3945 C.3     1  UNL1        0.1759
     25 N         143.7705  136.5295  155.0409 N.am    1  UNL1       -0.2931
     26 C         142.5710  135.6301  154.9949 C.2     1  UNL1        0.2462
     27 O         141.2095  136.1792  155.3025 O.2     1  UNL1       -0.2701
     28 H         144.6642  136.1691  154.8391 H       1  UNL1        0.1502
     29 C         142.7332  134.1814  154.6414 C.ar    1  UNL1        0.0533
     30 C         142.2354  133.6712  153.3216 C.ar    1  UNL1        0.0045
     31 C         142.3975  132.2224  152.9681 C.ar    1  UNL1        0.0001
     32 C         143.0575  131.2839  153.9343 C.ar    1  UNL1        0.0039
     33 C         143.5553  131.7941  155.2541 C.ar    1  UNL1        0.0716
     34 C         143.3932  133.2428  155.6077 C.ar    1  UNL1        0.0084
     35 C         144.2153  130.8557  156.2204 C.3     1  UNL1        0.4186
     36 F         144.8753  129.9172  157.1866 F       1  UNL1       -0.1659
     37 F         145.2111  130.4710  155.1665 F       1  UNL1       -0.1659
     38 F         143.2195  131.2403  157.2742 F       1  UNL1       -0.1659
@<TRIPOS>BOND
     1     1     2    2
     2     2    24    1
     3    24    25    1
     4    25    26   am
     5    26    27    2
     6    26    29    1
     7    29    30   ar
     8    30    31   ar
     9    31    32   ar
    10    32    33   ar
    11    33    35    1
    12    35    36    1
    13    35    37    1
    14    35    38    1
    15    33    34   ar
    16     2     3   am
    17     3     5    1
    18     5     6    1
    19     6     7    1
    20     9     7    1
    21     9    10    1
    22    10    11    1
    23    11    12    1
    24    12    15    1
    25    15    16   ar
    26    16    17   ar
    27    17    18   ar
    28    18    19   ar
    29    19    20   ar
    30    19    21    1
    31    21    22    1
    32    22    23    1
    33    12    13    1
    34    13    14    1
    35     7     8    1
    36    34    29   ar
    37     8     5    1
    38    14     9    1
    39    20    15   ar
    40    23    18    1
    41    25    28    1
    42     3     4    1
@<TRIPOS>MOLECULE
*****
 38 42 0 0 0
SMALL
GASTEIGER

@<TRIPOS>ATOM
      1 O         139.7351  137.6684  157.5837 O.2     1  UNL1       -0.2733
      2 C         141.0658  137.2567  157.0272 C.2     1  UNL1        0.2426
      3 N         142.3165  137.4940  157.8207 N.am    1  UNL1       -0.3018
      4 H         143.1899  137.2238  157.4554 H       1  UNL1        0.1495
      5 C         142.2363  138.1429  159.1706 C.3     1  UNL1        0.1035
      6 C         142.6870  137.7744  160.5531 C.3     1  UNL1        0.0933
      7 N         142.1230  139.0605  161.0799 N.3     1  UNL1       -0.2711
      8 C         141.6723  139.4291  159.6975 C.3     1  UNL1        0.0933
      9 C         142.0428  139.7095  162.4299 C.3     1  UNL1        0.0576
     10 C         143.1807  140.5516  162.9259 C.3     1  UNL1        0.0163
     11 C         143.1006  141.2006  164.2758 C.3     1  UNL1        0.0057
     12 C         141.8826  141.0074  165.1298 C.3     1  UNL1        0.0225
     13 C         140.7448  140.1652  164.6338 C.3     1  UNL1        0.0057
     14 C         140.8248  139.5163  163.2838 C.3     1  UNL1        0.0163
     15 C         141.8025  141.6564  166.4798 C.ar    1  UNL1       -0.0193
     16 C         140.4923  142.1888  166.9795 C.ar    1  UNL1       -0.0010
     17 C         140.4122  142.8377  168.3294 C.ar    1  UNL1        0.0399
     18 C         141.6424  142.9543  169.1797 C.ar    1  UNL1        0.1764
     19 C         142.9527  142.4218  168.6801 C.ar    1  UNL1        0.1761
     20 C         143.0328  141.7729  167.3301 C.ar    1  UNL1        0.0359
     21 O         143.9891  142.6776  169.7338 O.3     1  UNL1       -0.4346
     22 C         143.3194  143.3681  170.8847 C.3     1  UNL1        0.4294
     23 O         141.8690  143.5391  170.5423 O.3     1  UNL1       -0.4346
     24 C         141.1459  136.6078  155.6771 C.3     1  UNL1        0.1759
     25 N         141.4131  135.1359  155.5672 N.am    1  UNL1       -0.2931
     26 C         142.8034  134.6092  155.7662 C.2     1  UNL1        0.2462
     27 O         143.9265  135.5543  156.0752 O.2     1  UNL1       -0.2701
     28 H         140.6761  134.5155  155.3644 H       1  UNL1        0.1502
     29 C         143.0707  133.1373  155.6563 C.ar    1  UNL1        0.0533
     30 C         142.9387  132.4480  154.3306 C.ar    1  UNL1        0.0045
     31 C         143.2059  130.9761  154.2207 C.ar    1  UNL1        0.0001
     32 C         143.6052  130.1934  155.4365 C.ar    1  UNL1        0.0039
     33 C         143.7372  130.8827  156.7622 C.ar    1  UNL1        0.0716
     34 C         143.4700  132.3546  156.8721 C.ar    1  UNL1        0.0084
     35 C         144.1364  130.1002  157.9779 C.3     1  UNL1        0.4186
     36 F         144.5358  129.3177  159.1938 F       1  UNL1       -0.1659
     37 F         145.0204  131.2305  158.4151 F       1  UNL1       -0.1659
     38 F         143.2525  128.9699  157.5408 F       1  UNL1       -0.1659
@<TRIPOS>BOND
     1     1     2    2
     2     2    24    1
     3    24    25    1
     4    25    26   am
     5    26    27    2
     6    26    29    1
     7    29    30   ar
     8    30    31   ar
     9    31    32   ar
    10    32    33   ar
    11    33    35    1
    12    35    36    1
    13    35    37    1
    14    35    38    1
    15    33    34   ar
    16     2     3   am
    17     3     5    1
    18     5     6    1
    19     6     7    1
    20     9     7    1
    21     9    10    1
    22    10    11    1
    23    11    12    1
    24    12    15    1
    25    15    16   ar
    26    16    17   ar
    27    17    18   ar
    28    18    19   ar
    29    19    20   ar
    30    19    21    1
    31    21    22    1
    32    22    23    1
    33    12    13    1
    34    13    14    1
    35     7     8    1
    36    34    29   ar
    37     8     5    1
    38    14     9    1
    39    20    15   ar
    40    23    18    1
    41    25    28    1
    42     3     4    1
@<TRIPOS>MOLECULE
*****
 38 42 0 0 0
SMALL
GASTEIGER

@<TRIPOS>ATOM
      1 O         140.0115  137.6406  157.3775 O.2     1  UNL1       -0.2733
      2 C         141.3555  137.2242  156.8575 C.2     1  UNL1        0.2426
      3 N         142.5842  137.4519  157.6873 N.am    1  UNL1       -0.3018
      4 H         143.4663  137.1786  157.3460 H       1  UNL1        0.1495
      5 C         142.4688  138.0959  159.0370 C.3     1  UNL1        0.1035
      6 C         141.9749  139.4191  159.5421 C.3     1  UNL1        0.0933
      7 N         142.3056  139.0068  160.9459 N.3     1  UNL1       -0.2711
      8 C         142.7995  137.6836  160.4408 C.3     1  UNL1        0.0933
      9 C         142.1902  139.6508  162.2956 C.3     1  UNL1        0.0576
     10 C         143.4253  140.0872  163.0264 C.3     1  UNL1        0.0163
     11 C         143.3101  140.7312  164.3762 C.3     1  UNL1        0.0057
     12 C         141.9596  140.9389  164.9952 C.3     1  UNL1        0.0225
     13 C         140.7245  140.5025  164.2644 C.3     1  UNL1        0.0057
     14 C         140.8398  139.8585  162.9146 C.3     1  UNL1        0.0163
     15 C         141.8443  141.5829  166.3451 C.ar    1  UNL1       -0.0193
     16 C         140.5093  142.0559  166.8388 C.ar    1  UNL1       -0.0010
     17 C         140.3940  142.6999  168.1886 C.ar    1  UNL1        0.0399
     18 C         141.6138  142.8710  169.0446 C.ar    1  UNL1        0.1764
     19 C         142.9489  142.3980  168.5509 C.ar    1  UNL1        0.1761
     20 C         143.0642  141.7540  167.2011 C.ar    1  UNL1        0.0359
     21 O         143.9680  142.6994  169.6095 O.3     1  UNL1       -0.4346
     22 C         143.2626  143.3586  170.7575 C.3     1  UNL1        0.4294
     23 O         141.8077  143.4647  170.4084 O.3     1  UNL1       -0.4346
     24 C         141.4708  136.5802  155.5076 C.3     1  UNL1        0.1759
     25 N         141.5884  135.0890  155.3957 N.am    1  UNL1       -0.2931
     26 C         142.8836  134.4115  155.7323 C.2     1  UNL1        0.2462
     27 O         144.0612  135.2251  156.1808 O.2     1  UNL1       -0.2701
     28 H         140.8155  134.5549  155.1013 H       1  UNL1        0.1502
     29 C         143.0012  132.9203  155.6204 C.ar    1  UNL1        0.0533
     30 C         144.3340  132.2571  155.8042 C.ar    1  UNL1        0.0045
     31 C         144.4515  130.7659  155.6923 C.ar    1  UNL1        0.0001
     32 C         143.2362  129.9379  155.3965 C.ar    1  UNL1        0.0039
     33 C         141.9034  130.6010  155.2126 C.ar    1  UNL1        0.0716
     34 C         141.7858  132.0922  155.3246 C.ar    1  UNL1        0.0084
     35 C         140.6881  129.7731  154.9169 C.3     1  UNL1        0.4186
     36 F         139.4728  128.9452  154.6211 F       1  UNL1       -0.1659
     37 F         139.8352  131.0059  154.9705 F       1  UNL1       -0.1659
     38 F         141.5409  128.5403  154.8632 F       1  UNL1       -0.1659
@<TRIPOS>BOND
     1     1     2    2
     2     2    24    1
     3    24    25    1
     4    25    26   am
     5    26    27    2
     6    26    29    1
     7    29    30   ar
     8    30    31   ar
     9    31    32   ar
    10    32    33   ar
    11    33    35    1
    12    35    36    1
    13    35    37    1
    14    35    38    1
    15    33    34   ar
    16     2     3   am
    17     3     5    1
    18     5     6    1
    19     6     7    1
    20     9     7    1
    21     9    10    1
    22    10    11    1
    23    11    12    1
    24    12    15    1
    25    15    16   ar
    26    16    17   ar
    27    17    18   ar
    28    18    19   ar
    29    19    20   ar
    30    19    21    1
    31    21    22    1
    32    22    23    1
    33    12    13    1
    34    13    14    1
    35     7     8    1
    36    34    29   ar
    37     8     5    1
    38    14     9    1
    39    20    15   ar
    40    23    18    1
    41    25    28    1
    42     3     4    1
@<TRIPOS>MOLECULE
*****
 38 42 0 0 0
SMALL
GASTEIGER

@<TRIPOS>ATOM
      1 O         137.3588  142.8682  157.4753 O.2     1  UNL1       -0.2733
      2 C         136.9628  141.5408  156.8997 C.2     1  UNL1        0.2426
      3 N         137.2234  140.2810  157.6711 N.am    1  UNL1       -0.3018
      4 H         136.9634  139.4098  157.2933 H       1  UNL1        0.1495
      5 C         137.8799  140.3486  159.0180 C.3     1  UNL1        0.1035
      6 C         137.5180  139.8875  160.3987 C.3     1  UNL1        0.0933
      7 N         138.8084  140.4442  160.9230 N.3     1  UNL1       -0.2711
      8 C         139.1703  140.9053  159.5423 C.3     1  UNL1        0.0933
      9 C         139.4650  140.5118  162.2699 C.3     1  UNL1        0.0576
     10 C         140.2518  139.3411  162.7803 C.3     1  UNL1        0.0163
     11 C         140.9084  139.4086  164.1272 C.3     1  UNL1        0.0057
     12 C         140.7783  140.6468  164.9638 C.3     1  UNL1        0.0225
     13 C         139.9915  141.8175  164.4534 C.3     1  UNL1        0.0057
     14 C         139.3349  141.7500  163.1065 C.3     1  UNL1        0.0163
     15 C         141.4349  140.7144  166.3108 C.ar    1  UNL1       -0.0193
     16 C         141.1841  139.6357  167.3224 C.ar    1  UNL1       -0.0010
     17 C         141.8407  139.7032  168.6693 C.ar    1  UNL1        0.0399
     18 C         142.7482  140.8495  169.0047 C.ar    1  UNL1        0.1764
     19 C         142.9990  141.9282  167.9931 C.ar    1  UNL1        0.1761
     20 C         142.3424  141.8607  166.6461 C.ar    1  UNL1        0.0359
     21 O         143.9354  142.9281  168.6042 O.3     1  UNL1       -0.4346
     22 C         144.2632  142.4673  169.9935 C.3     1  UNL1        0.4294
     23 O         143.5295  141.1826  170.2410 O.3     1  UNL1       -0.4346
     24 C         136.3062  141.4733  155.5527 C.3     1  UNL1        0.1759
     25 N         134.8167  141.6079  155.4368 N.am    1  UNL1       -0.2931
     26 C         133.9192  140.6092  156.1055 C.2     1  UNL1        0.2462
     27 O         134.5112  139.4761  156.8902 O.2     1  UNL1       -0.2701
     28 H         134.4282  142.3516  154.9218 H       1  UNL1        0.1502
     29 C         132.4298  140.7438  155.9896 C.ar    1  UNL1        0.0533
     30 C         131.8388  141.7752  155.0748 C.ar    1  UNL1        0.0045
     31 C         130.3493  141.9097  154.9590 C.ar    1  UNL1        0.0001
     32 C         129.4508  141.0128  155.7579 C.ar    1  UNL1        0.0039
     33 C         130.0418  139.9814  156.6727 C.ar    1  UNL1        0.0716
     34 C         131.5313  139.8469  156.7886 C.ar    1  UNL1        0.0084
     35 C         129.1434  139.0845  157.4717 C.3     1  UNL1        0.4186
     36 F         128.2450  138.1875  158.2706 F       1  UNL1       -0.1659
     37 F         130.1593  137.9847  157.3793 F       1  UNL1       -0.1659
     38 F         128.1275  140.1842  157.5640 F       1  UNL1       -0.1659
@<TRIPOS>BOND
     1     1     2    2
     2     2    24    1
     3    24    25    1
     4    25    26   am
     5    26    27    2
     6    26    29    1
     7    29    30   ar
     8    30    31   ar
     9    31    32   ar
    10    32    33   ar
    11    33    35    1
    12    35    36    1
    13    35    37    1
    14    35    38    1
    15    33    34   ar
    16     2     3   am
    17     3     5    1
    18     5     6    1
    19     6     7    1
    20     9     7    1
    21     9    10    1
    22    10    11    1
    23    11    12    1
    24    12    15    1
    25    15    16   ar
    26    16    17   ar
    27    17    18   ar
    28    18    19   ar
    29    19    20   ar
    30    19    21    1
    31    21    22    1
    32    22    23    1
    33    12    13    1
    34    13    14    1
    35     7     8    1
    36    34    29   ar
    37     8     5    1
    38    14     9    1
    39    20    15   ar
    40    23    18    1
    41    25    28    1
    42     3     4    1
@<TRIPOS>MOLECULE
*****
 38 42 0 0 0
SMALL
GASTEIGER

@<TRIPOS>ATOM
      1 O         141.7731  137.7421  158.1243 O.2     1  UNL1       -0.2733
      2 C         140.4501  137.9023  157.4358 C.2     1  UNL1        0.2426
      3 N         139.2647  138.4146  158.1989 N.am    1  UNL1       -0.3018
      4 H         138.3963  138.5198  157.7470 H       1  UNL1        0.1495
      5 C         139.4023  138.7667  159.6504 C.3     1  UNL1        0.1035
      6 C         139.8724  139.9720  160.4095 C.3     1  UNL1        0.0933
      7 N         139.5969  139.2647  161.7033 N.3     1  UNL1       -0.2711
      8 C         139.1268  138.0594  160.9442 C.3     1  UNL1        0.0933
      9 C         139.7346  139.6168  163.1548 C.3     1  UNL1        0.0576
     10 C         140.8903  139.0847  163.9493 C.3     1  UNL1        0.0163
     11 C         141.0280  139.4367  165.4008 C.3     1  UNL1        0.0057
     12 C         140.0100  140.3208  166.0580 C.3     1  UNL1        0.0225
     13 C         138.8542  140.8530  165.2635 C.3     1  UNL1        0.0057
     14 C         138.7165  140.5010  163.8120 C.3     1  UNL1        0.0163
     15 C         140.1477  140.6729  167.5096 C.ar    1  UNL1       -0.0193
     16 C         139.1960  140.0955  168.5149 C.ar    1  UNL1       -0.0010
     17 C         139.3337  140.4475  169.9665 C.ar    1  UNL1        0.0399
     18 C         140.4231  141.3770  170.4128 C.ar    1  UNL1        0.1764
     19 C         141.3748  141.9545  169.4074 C.ar    1  UNL1        0.1761
     20 C         141.2372  141.6025  167.9558 C.ar    1  UNL1        0.0359
     21 O         142.3427  142.8367  170.1388 O.3     1  UNL1       -0.4346
     22 C         141.9892  142.8044  171.5962 C.3     1  UNL1        0.4294
     23 O         140.8028  141.9023  171.7655 O.3     1  UNL1       -0.4346
     24 C         140.3126  137.5502  155.9841 C.3     1  UNL1        0.1759
     25 N         140.6139  136.1565  155.5186 N.am    1  UNL1       -0.2931
     26 C         142.0098  135.7868  155.1126 C.2     1  UNL1        0.2462
     27 O         143.1043  136.8108  155.1721 O.2     1  UNL1       -0.2701
     28 H         139.8956  135.4844  155.4796 H       1  UNL1        0.1502
     29 C         142.3112  134.3931  154.6471 C.ar    1  UNL1        0.0533
     30 C         141.9028  133.9571  153.2713 C.ar    1  UNL1        0.0045
     31 C         142.2042  132.5633  152.8058 C.ar    1  UNL1        0.0001
     32 C         142.9140  131.6056  153.7162 C.ar    1  UNL1        0.0039
     33 C         143.3225  132.0416  155.0921 C.ar    1  UNL1        0.0716
     34 C         143.0211  133.4353  155.5576 C.ar    1  UNL1        0.0084
     35 C         144.0323  131.0839  156.0025 C.3     1  UNL1        0.4186
     36 F         144.7423  130.1262  156.9129 F       1  UNL1       -0.1659
     37 F         144.9379  130.6838  154.8755 F       1  UNL1       -0.1659
     38 F         143.1268  131.4839  157.1295 F       1  UNL1       -0.1659
@<TRIPOS>BOND
     1     1     2    2
     2     2    24    1
     3    24    25    1
     4    25    26   am
     5    26    27    2
     6    26    29    1
     7    29    30   ar
     8    30    31   ar
     9    31    32   ar
    10    32    33   ar
    11    33    35    1
    12    35    36    1
    13    35    37    1
    14    35    38    1
    15    33    34   ar
    16     2     3   am
    17     3     5    1
    18     5     6    1
    19     6     7    1
    20     9     7    1
    21     9    10    1
    22    10    11    1
    23    11    12    1
    24    12    15    1
    25    15    16   ar
    26    16    17   ar
    27    17    18   ar
    28    18    19   ar
    29    19    20   ar
    30    19    21    1
    31    21    22    1
    32    22    23    1
    33    12    13    1
    34    13    14    1
    35     7     8    1
    36    34    29   ar
    37     8     5    1
    38    14     9    1
    39    20    15   ar
    40    23    18    1
    41    25    28    1
    42     3     4    1
@<TRIPOS>MOLECULE
*****
 38 42 0 0 0
SMALL
GASTEIGER

@<TRIPOS>ATOM
      1 O         142.0650  141.8524  162.3659 O.2     1  UNL1       -0.2733
      2 C         141.0065  140.8900  161.9151 C.2     1  UNL1        0.2426
      3 N         141.1023  140.2494  160.5622 N.am    1  UNL1       -0.3018
      4 H         140.4076  139.6178  160.2663 H       1  UNL1        0.1495
      5 C         142.2567  140.5713  159.6601 C.3     1  UNL1        0.1035
      6 C         142.4323  141.3823  158.4106 C.3     1  UNL1        0.0933
      7 N         143.8893  141.0265  158.3843 N.3     1  UNL1       -0.2711
      8 C         143.7136  140.2155  159.6339 C.3     1  UNL1        0.0933
      9 C         145.0437  141.3484  157.4823 C.3     1  UNL1        0.0576
     10 C         145.2949  140.5162  156.2598 C.3     1  UNL1        0.0163
     11 C         146.4493  140.8379  155.3577 C.3     1  UNL1        0.0057
     12 C         147.3524  141.9919  155.6780 C.3     1  UNL1        0.0225
     13 C         147.1012  142.8241  156.9005 C.3     1  UNL1        0.0057
     14 C         145.9468  142.5024  157.8026 C.3     1  UNL1        0.0163
     15 C         148.5069  142.3137  154.7759 C.ar    1  UNL1       -0.0193
     16 C         148.2853  143.1278  153.5357 C.ar    1  UNL1       -0.0010
     17 C         149.4397  143.4496  152.6336 C.ar    1  UNL1        0.0399
     18 C         150.8157  142.9573  152.9717 C.ar    1  UNL1        0.1764
     19 C         151.0373  142.1432  154.2120 C.ar    1  UNL1        0.1761
     20 C         149.8829  141.8214  155.1141 C.ar    1  UNL1        0.0359
     21 O         152.4952  141.7980  154.2856 O.3     1  UNL1       -0.4346
     22 C         153.1746  142.3988  153.0908 C.3     1  UNL1        0.4294
     23 O         152.1367  143.1152  152.2788 O.3     1  UNL1       -0.4346
     24 C         139.8520  140.5682  162.8173 C.3     1  UNL1        0.1759
     25 N         140.0231  140.6324  164.3061 N.am    1  UNL1       -0.2931
     26 C         140.8678  139.6113  165.0087 C.2     1  UNL1        0.2462
     27 O         141.5415  138.5259  164.2224 O.2     1  UNL1       -0.2701
     28 H         139.5809  141.3448  164.8222 H       1  UNL1        0.1502
     29 C         141.0388  139.6755  166.4975 C.ar    1  UNL1        0.0533
     30 C         142.3846  139.4219  167.1095 C.ar    1  UNL1        0.0045
     31 C         142.5556  139.4861  168.5983 C.ar    1  UNL1        0.0001
     32 C         141.3808  139.8040  169.4752 C.ar    1  UNL1        0.0039
     33 C         140.0350  140.0575  168.8632 C.ar    1  UNL1        0.0716
     34 C         139.8640  139.9933  167.3744 C.ar    1  UNL1        0.0084
     35 C         138.8602  140.3754  169.7400 C.3     1  UNL1        0.4186
     36 F         137.6855  140.6932  170.6169 F       1  UNL1       -0.1659
     37 F         139.7019  141.3446  170.5163 F       1  UNL1       -0.1659
     38 F         138.0187  139.4062  168.9639 F       1  UNL1       -0.1659
@<TRIPOS>BOND
     1     1     2    2
     2     2    24    1
     3    24    25    1
     4    25    26   am
     5    26    27    2
     6    26    29    1
     7    29    30   ar
     8    30    31   ar
     9    31    32   ar
    10    32    33   ar
    11    33    35    1
    12    35    36    1
    13    35    37    1
    14    35    38    1
    15    33    34   ar
    16     2     3   am
    17     3     5    1
    18     5     6    1
    19     6     7    1
    20     9     7    1
    21     9    10    1
    22    10    11    1
    23    11    12    1
    24    12    15    1
    25    15    16   ar
    26    16    17   ar
    27    17    18   ar
    28    18    19   ar
    29    19    20   ar
    30    19    21    1
    31    21    22    1
    32    22    23    1
    33    12    13    1
    34    13    14    1
    35     7     8    1
    36    34    29   ar
    37     8     5    1
    38    14     9    1
    39    20    15   ar
    40    23    18    1
    41    25    28    1
    42     3     4    1
@<TRIPOS>MOLECULE
*****
 38 42 0 0 0
SMALL
GASTEIGER

@<TRIPOS>ATOM
      1 O         142.0712  141.9432  162.7186 O.2     1  UNL1       -0.2733
      2 C         141.0099  140.9578  162.3282 C.2     1  UNL1        0.2426
      3 N         141.0630  140.2909  160.9856 N.am    1  UNL1       -0.3018
      4 H         140.3664  139.6441  160.7294 H       1  UNL1        0.1495
      5 C         142.1774  140.6095  160.0336 C.3     1  UNL1        0.1035
      6 C         142.3311  141.5096  158.8436 C.3     1  UNL1        0.0933
      7 N         143.7535  141.0601  158.6871 N.3     1  UNL1       -0.2711
      8 C         143.5999  140.1600  159.8772 C.3     1  UNL1        0.0933
      9 C         144.8680  141.3787  157.7351 C.3     1  UNL1        0.0576
     10 C         145.0541  140.5546  156.4956 C.3     1  UNL1        0.0163
     11 C         146.1685  140.8731  155.5435 C.3     1  UNL1        0.0057
     12 C         147.0969  142.0157  155.8309 C.3     1  UNL1        0.0225
     13 C         146.9108  142.8398  157.0703 C.3     1  UNL1        0.0057
     14 C         145.7964  142.5213  158.0224 C.3     1  UNL1        0.0163
     15 C         148.2114  142.3342  154.8787 C.ar    1  UNL1       -0.0193
     16 C         147.9597  143.2297  153.7021 C.ar    1  UNL1       -0.0010
     17 C         149.0742  143.5482  152.7500 C.ar    1  UNL1        0.0399
     18 C         150.4404  142.9712  152.9746 C.ar    1  UNL1        0.1764
     19 C         150.6922  142.0756  154.1513 C.ar    1  UNL1        0.1761
     20 C         149.5777  141.7571  155.1034 C.ar    1  UNL1        0.0359
     21 O         152.1321  141.6569  154.1154 O.3     1  UNL1       -0.4346
     22 C         152.7702  142.2937  152.9166 C.3     1  UNL1        0.4294
     23 O         151.7247  143.1060  152.2115 O.3     1  UNL1       -0.4346
     24 C         139.8953  140.6393  163.2803 C.3     1  UNL1        0.1759
     25 N         140.0388  140.9625  164.7381 N.am    1  UNL1       -0.2931
     26 C         140.4123  139.8846  165.7120 C.2     1  UNL1        0.2462
     27 O         140.6422  138.4834  165.2282 O.2     1  UNL1       -0.2701
     28 H         139.8880  141.8821  165.0556 H       1  UNL1        0.1502
     29 C         140.5558  140.2078  167.1697 C.ar    1  UNL1        0.0533
     30 C         139.4128  139.9601  168.1089 C.ar    1  UNL1        0.0045
     31 C         139.5564  140.2833  169.5666 C.ar    1  UNL1        0.0001
     32 C         140.8429  140.8543  170.0851 C.ar    1  UNL1        0.0039
     33 C         141.9859  141.1020  169.1459 C.ar    1  UNL1        0.0716
     34 C         141.8424  140.7788  167.6882 C.ar    1  UNL1        0.0084
     35 C         143.2725  141.6730  169.6643 C.3     1  UNL1        0.4186
     36 F         144.5591  142.2438  170.1827 F       1  UNL1       -0.1659
     37 F         143.4985  140.4296  170.4726 F       1  UNL1       -0.1659
     38 F         143.0465  142.9162  168.8561 F       1  UNL1       -0.1659
@<TRIPOS>BOND
     1     1     2    2
     2     2    24    1
     3    24    25    1
     4    25    26   am
     5    26    27    2
     6    26    29    1
     7    29    30   ar
     8    30    31   ar
     9    31    32   ar
    10    32    33   ar
    11    33    35    1
    12    35    36    1
    13    35    37    1
    14    35    38    1
    15    33    34   ar
    16     2     3   am
    17     3     5    1
    18     5     6    1
    19     6     7    1
    20     9     7    1
    21     9    10    1
    22    10    11    1
    23    11    12    1
    24    12    15    1
    25    15    16   ar
    26    16    17   ar
    27    17    18   ar
    28    18    19   ar
    29    19    20   ar
    30    19    21    1
    31    21    22    1
    32    22    23    1
    33    12    13    1
    34    13    14    1
    35     7     8    1
    36    34    29   ar
    37     8     5    1
    38    14     9    1
    39    20    15   ar
    40    23    18    1
    41    25    28    1
    42     3     4    1
@<TRIPOS>MOLECULE
*****
 38 42 0 0 0
SMALL
GASTEIGER

@<TRIPOS>ATOM
      1 O         141.5718  142.6607  156.8239 O.2     1  UNL1       -0.2733
      2 C         140.5773  143.7132  156.4326 C.2     1  UNL1        0.2426
      3 N         139.7890  144.4298  157.4886 N.am    1  UNL1       -0.3018
      4 H         139.1363  145.1206  157.2319 H       1  UNL1        0.1495
      5 C         139.9953  144.0938  158.9358 C.3     1  UNL1        0.1035
      6 C         139.2638  143.2603  159.9459 C.3     1  UNL1        0.0933
      7 N         140.2870  143.6185  160.9826 N.3     1  UNL1       -0.2711
      8 C         141.0185  144.4519  159.9725 C.3     1  UNL1        0.0933
      9 C         140.4933  143.2825  162.4298 C.3     1  UNL1        0.0576
     10 C         141.3120  142.0852  162.8124 C.3     1  UNL1        0.0163
     11 C         141.5184  141.7491  164.2596 C.3     1  UNL1        0.0057
     12 C         140.9061  142.6102  165.3242 C.3     1  UNL1        0.0225
     13 C         140.0874  143.8075  164.9417 C.3     1  UNL1        0.0057
     14 C         139.8810  144.1436  163.4945 C.3     1  UNL1        0.0163
     15 C         141.1125  142.2741  166.7715 C.ar    1  UNL1       -0.0193
     16 C         140.3886  143.0493  167.8321 C.ar    1  UNL1       -0.0010
     17 C         140.5949  142.7133  169.2793 C.ar    1  UNL1        0.0399
     18 C         141.5252  141.6019  169.6659 C.ar    1  UNL1        0.1764
     19 C         142.2491  140.8266  168.6053 C.ar    1  UNL1        0.1761
     20 C         142.0428  141.1627  167.1581 C.ar    1  UNL1        0.0359
     21 O         143.0970  139.7923  169.2844 O.3     1  UNL1       -0.4346
     22 C         142.8970  139.9283  170.7648 C.3     1  UNL1        0.4294
     23 O         141.9256  141.0467  171.0006 O.3     1  UNL1       -0.4346
     24 C         140.3710  144.0492  154.9853 C.3     1  UNL1        0.1759
     25 N         140.6449  145.4389  154.4915 N.am    1  UNL1       -0.2931
     26 C         139.6060  146.5093  154.6495 C.2     1  UNL1        0.2462
     27 O         138.2933  146.1900  155.3013 O.2     1  UNL1       -0.2701
     28 H         141.5065  145.6484  154.0638 H       1  UNL1        0.1502
     29 C         139.8800  147.8989  154.1558 C.ar    1  UNL1        0.0533
     30 C         140.7276  148.1080  152.9360 C.ar    1  UNL1        0.0045
     31 C         141.0014  149.4978  152.4423 C.ar    1  UNL1        0.0001
     32 C         140.4278  150.6783  153.1683 C.ar    1  UNL1        0.0039
     33 C         139.5802  150.4693  154.3881 C.ar    1  UNL1        0.0716
     34 C         139.3063  149.0796  154.8819 C.ar    1  UNL1        0.0084
     35 C         139.0065  151.6498  155.1142 C.3     1  UNL1        0.4186
     36 F         138.4328  152.8303  155.8402 F       1  UNL1       -0.1659
     37 F         139.9210  152.5627  154.3523 F       1  UNL1       -0.1659
     38 F         138.0920  150.7369  155.8760 F       1  UNL1       -0.1659
@<TRIPOS>BOND
     1     1     2    2
     2     2    24    1
     3    24    25    1
     4    25    26   am
     5    26    27    2
     6    26    29    1
     7    29    30   ar
     8    30    31   ar
     9    31    32   ar
    10    32    33   ar
    11    33    35    1
    12    35    36    1
    13    35    37    1
    14    35    38    1
    15    33    34   ar
    16     2     3   am
    17     3     5    1
    18     5     6    1
    19     6     7    1
    20     9     7    1
    21     9    10    1
    22    10    11    1
    23    11    12    1
    24    12    15    1
    25    15    16   ar
    26    16    17   ar
    27    17    18   ar
    28    18    19   ar
    29    19    20   ar
    30    19    21    1
    31    21    22    1
    32    22    23    1
    33    12    13    1
    34    13    14    1
    35     7     8    1
    36    34    29   ar
    37     8     5    1
    38    14     9    1
    39    20    15   ar
    40    23    18    1
    41    25    28    1
    42     3     4    1
@<TRIPOS>MOLECULE
*****
 38 42 0 0 0
SMALL
GASTEIGER

@<TRIPOS>ATOM
      1 O         145.0325  140.5967  157.4490 O.2     1  UNL1       -0.2733
      2 C         143.7598  141.3895  157.4090 C.2     1  UNL1        0.2426
      3 N         142.4522  140.6970  157.1625 N.am    1  UNL1       -0.3018
      4 H         141.6169  141.2173  157.1363 H       1  UNL1        0.1495
      5 C         142.4175  139.2117  156.9560 C.3     1  UNL1        0.1035
      6 C         141.6726  138.0708  157.5833 C.3     1  UNL1        0.0933
      7 N         142.3683  137.1111  156.6641 N.3     1  UNL1       -0.2711
      8 C         143.1132  138.2520  156.0369 C.3     1  UNL1        0.0933
      9 C         142.3336  135.6258  156.4576 C.3     1  UNL1        0.0576
     10 C         141.4240  135.0337  155.4223 C.3     1  UNL1        0.0163
     11 C         141.3892  133.5484  155.2157 C.3     1  UNL1        0.0057
     12 C         142.2640  132.6553  156.0445 C.3     1  UNL1        0.0225
     13 C         143.1736  133.2474  157.0799 C.3     1  UNL1        0.0057
     14 C         143.2084  134.7327  157.2864 C.3     1  UNL1        0.0163
     15 C         142.2292  131.1699  155.8379 C.ar    1  UNL1       -0.0193
     16 C         141.1095  130.5471  155.0581 C.ar    1  UNL1       -0.0010
     17 C         141.0747  129.0618  154.8516 C.ar    1  UNL1        0.0399
     18 C         142.1597  128.1993  155.4249 C.ar    1  UNL1        0.1764
     19 C         143.2795  128.8220  156.2048 C.ar    1  UNL1        0.1761
     20 C         143.3143  130.3073  156.4113 C.ar    1  UNL1        0.0359
     21 O         144.2023  127.7253  156.6472 O.3     1  UNL1       -0.4346
     22 C         143.6527  126.4248  156.1407 C.3     1  UNL1        0.4294
     23 O         142.3903  126.7177  155.3853 O.3     1  UNL1       -0.4346
     24 C         143.7946  142.8749  157.6155 C.3     1  UNL1        0.1759
     25 N         143.6118  143.4454  158.9907 N.am    1  UNL1       -0.2931
     26 C         142.2490  143.4716  159.6167 C.2     1  UNL1        0.2462
     27 O         141.0689  142.9274  158.8675 O.2     1  UNL1       -0.2701
     28 H         144.3863  143.8026  159.4824 H       1  UNL1        0.1502
     29 C         142.0662  144.0421  160.9919 C.ar    1  UNL1        0.0533
     30 C         140.8576  144.8738  161.3043 C.ar    1  UNL1        0.0045
     31 C         140.6749  145.4442  162.6795 C.ar    1  UNL1        0.0001
     32 C         141.7007  145.1831  163.7423 C.ar    1  UNL1        0.0039
     33 C         142.9093  144.3514  163.4299 C.ar    1  UNL1        0.0716
     34 C         143.0921  143.7809  162.0547 C.ar    1  UNL1        0.0084
     35 C         143.9352  144.0903  164.4925 C.3     1  UNL1        0.4186
     36 F         144.9611  143.8290  165.5552 F       1  UNL1       -0.1659
     37 F         143.7310  142.6134  164.3266 F       1  UNL1       -0.1659
     38 F         144.1394  145.5670  164.6585 F       1  UNL1       -0.1659
@<TRIPOS>BOND
     1     1     2    2
     2     2    24    1
     3    24    25    1
     4    25    26   am
     5    26    27    2
     6    26    29    1
     7    29    30   ar
     8    30    31   ar
     9    31    32   ar
    10    32    33   ar
    11    33    35    1
    12    35    36    1
    13    35    37    1
    14    35    38    1
    15    33    34   ar
    16     2     3   am
    17     3     5    1
    18     5     6    1
    19     6     7    1
    20     9     7    1
    21     9    10    1
    22    10    11    1
    23    11    12    1
    24    12    15    1
    25    15    16   ar
    26    16    17   ar
    27    17    18   ar
    28    18    19   ar
    29    19    20   ar
    30    19    21    1
    31    21    22    1
    32    22    23    1
    33    12    13    1
    34    13    14    1
    35     7     8    1
    36    34    29   ar
    37     8     5    1
    38    14     9    1
    39    20    15   ar
    40    23    18    1
    41    25    28    1
    42     3     4    1
