@<TRIPOS>MOLECULE
*****
 29 32 0 0 0
SMALL
GASTEIGER

@<TRIPOS>ATOM
      1 N         140.2746  143.2767  166.2506 N.3     1  UNL1       -0.3204
      2 C         141.2856  142.9355  165.1963 C.3     1  UNL1        0.0783
      3 C         141.1320  143.4781  163.8063 C.3     1  UNL1        0.1229
      4 N         142.1429  143.1369  162.7520 N.ar    1  UNL1       -0.3134
      5 C         143.3075  142.2531  163.0877 C.ar    1  UNL1        0.1207
      6 N         144.1382  142.0906  161.8493 N.ar    1  UNL1       -0.2294
      7 C         143.4869  142.8740  160.7483 C.ar    1  UNL1        0.1174
      8 C         143.8575  143.0820  159.3097 C.ar    1  UNL1        0.1193
      9 N         142.9949  143.9366  158.4291 N.ar    1  UNL1       -0.2382
     10 C         141.7618  144.5832  158.9870 C.ar    1  UNL1        0.1542
     11 C         141.3912  144.3752  160.4255 C.ar    1  UNL1        0.0418
     12 C         142.2538  143.5206  161.3062 C.ar    1  UNL1        0.0816
     13 C         143.4612  141.7106  164.4777 C.3     1  UNL1        0.0698
     14 C         142.4502  142.0517  165.5320 C.3     1  UNL1        0.0482
     15 H         139.5575  143.8820  165.8508 H       1  UNL1        0.1189
     16 H         140.7365  143.7599  167.0210 H       1  UNL1        0.1189
     17 C         142.6038  141.5092  166.9220 C.ar    1  UNL1        0.0091
     18 C         143.1988  142.3658  168.0000 C.ar    1  UNL1        0.0300
     19 C         143.3525  141.8232  169.3900 C.ar    1  UNL1        0.1672
     20 F         143.9475  142.6798  170.4679 F       1  UNL1       -0.2018
     21 C         142.9110  140.4241  169.7019 C.ar    1  UNL1        0.1696
     22 F         143.0647  139.8815  171.0919 F       1  UNL1       -0.2017
     23 C         142.3160  139.5674  168.6239 C.ar    1  UNL1        0.0612
     24 C         142.1624  140.1100  167.2339 C.ar    1  UNL1        0.1386
     25 F         141.5673  139.2534  166.1559 F       1  UNL1       -0.2044
     26 C         140.8992  145.4379  158.1063 C.3     1  UNL1        0.4349
     27 F         140.0367  146.2925  157.2257 F       1  UNL1       -0.1644
     28 F         139.6899  144.6627  158.5383 F       1  UNL1       -0.1644
     29 F         142.1085  146.2131  157.6743 F       1  UNL1       -0.1644
@<TRIPOS>BOND
     1     2     1    1
     2     2     3    1
     3     3     4    1
     4     4     5   ar
     5     5     6   ar
     6     6     7   ar
     7     7     8   ar
     8     8     9   ar
     9     9    10   ar
    10    10    26    1
    11    26    27    1
    12    26    28    1
    13    26    29    1
    14    10    11   ar
    15    11    12   ar
    16     5    13    1
    17    13    14    1
    18    14    17    1
    19    17    18   ar
    20    18    19   ar
    21    19    20    1
    22    19    21   ar
    23    21    22    1
    24    21    23   ar
    25    23    24   ar
    26    24    25    1
    27    14     2    1
    28    24    17   ar
    29    12     4   ar
    30    12     7   ar
    31     1    15    1
    32     1    16    1
@<TRIPOS>MOLECULE
*****
 29 32 0 0 0
SMALL
GASTEIGER

@<TRIPOS>ATOM
      1 N         142.7687  144.5357  163.1340 N.3     1  UNL1       -0.3204
      2 C         141.7318  143.4562  163.2325 C.3     1  UNL1        0.0783
      3 C         141.4111  142.8436  164.5637 C.3     1  UNL1        0.1229
      4 N         140.3743  141.7642  164.6623 N.ar    1  UNL1       -0.3134
      5 C         139.6581  141.2973  163.4298 C.ar    1  UNL1        0.1207
      6 N         138.6914  140.2240  163.8340 N.ar    1  UNL1       -0.2294
      7 C         138.8102  140.0274  165.3163 C.ar    1  UNL1        0.1174
      8 C         138.1056  139.1047  166.2661 C.ar    1  UNL1        0.1193
      9 N         138.4411  139.1339  167.7277 N.ar    1  UNL1       -0.2382
     10 C         139.4812  140.0858  168.2397 C.ar    1  UNL1        0.1542
     11 C         140.1857  141.0085  167.2899 C.ar    1  UNL1        0.0418
     12 C         139.8502  140.9793  165.8283 C.ar    1  UNL1        0.0816
     13 C         139.9788  141.9099  162.0986 C.3     1  UNL1        0.0698
     14 C         141.0156  142.9894  162.0000 C.3     1  UNL1        0.0482
     15 H         143.1501  144.7264  164.0605 H       1  UNL1        0.1189
     16 H         142.3422  145.3838  162.7607 H       1  UNL1        0.1189
     17 C         141.3363  143.6020  160.6689 C.ar    1  UNL1        0.0091
     18 C         140.4646  144.6894  160.1142 C.ar    1  UNL1        0.0300
     19 C         140.7853  145.3020  158.7830 C.ar    1  UNL1        0.1672
     20 F         139.9136  146.3894  158.2284 F       1  UNL1       -0.2018
     21 C         141.9776  144.8271  158.0067 C.ar    1  UNL1        0.1696
     22 F         142.2982  145.4397  156.6755 F       1  UNL1       -0.2017
     23 C         142.8492  143.7397  158.5613 C.ar    1  UNL1        0.0612
     24 C         142.5286  143.1271  159.8925 C.ar    1  UNL1        0.1386
     25 F         143.4002  142.0397  160.4472 F       1  UNL1       -0.2044
     26 C         139.8166  140.1149  169.7014 C.3     1  UNL1        0.4349
     27 F         140.1521  140.1441  171.1631 F       1  UNL1       -0.1644
     28 F         141.1520  139.4984  169.4073 F       1  UNL1       -0.1644
     29 F         138.4813  140.7315  169.9956 F       1  UNL1       -0.1644
@<TRIPOS>BOND
     1     2     1    1
     2     2     3    1
     3     3     4    1
     4     4     5   ar
     5     5     6   ar
     6     6     7   ar
     7     7     8   ar
     8     8     9   ar
     9     9    10   ar
    10    10    26    1
    11    26    27    1
    12    26    28    1
    13    26    29    1
    14    10    11   ar
    15    11    12   ar
    16     5    13    1
    17    13    14    1
    18    14    17    1
    19    17    18   ar
    20    18    19   ar
    21    19    20    1
    22    19    21   ar
    23    21    22    1
    24    21    23   ar
    25    23    24   ar
    26    24    25    1
    27    14     2    1
    28    24    17   ar
    29    12     4   ar
    30    12     7   ar
    31     1    15    1
    32     1    16    1
@<TRIPOS>MOLECULE
*****
 29 32 0 0 0
SMALL
GASTEIGER

@<TRIPOS>ATOM
      1 N         142.6484  144.9246  163.2065 N.3     1  UNL1       -0.3204
      2 C         141.6783  143.7836  163.2919 C.3     1  UNL1        0.0783
      3 C         141.3860  143.1454  164.6175 C.3     1  UNL1        0.1229
      4 N         140.4160  142.0044  164.7029 N.ar    1  UNL1       -0.3134
      5 C         139.7384  141.5017  163.4628 C.ar    1  UNL1        0.1207
      6 N         138.8359  140.3694  163.8544 N.ar    1  UNL1       -0.2294
      7 C         138.9557  140.1723  165.3365 C.ar    1  UNL1        0.1174
      8 C         138.3018  139.2033  166.2764 C.ar    1  UNL1        0.1193
      9 N         138.6244  139.2448  167.7406 N.ar    1  UNL1       -0.2382
     10 C         139.6011  140.2553  168.2651 C.ar    1  UNL1        0.1542
     11 C         140.2550  141.2243  167.3253 C.ar    1  UNL1        0.0418
     12 C         139.9324  141.1828  165.8610 C.ar    1  UNL1        0.0816
     13 C         140.0307  142.1399  162.1372 C.3     1  UNL1        0.0698
     14 C         141.0007  143.2808  162.0517 C.3     1  UNL1        0.0482
     15 H         143.0109  145.1331  164.1368 H       1  UNL1        0.1189
     16 H         142.1738  145.7472  162.8343 H       1  UNL1        0.1189
     17 C         141.2930  143.9191  160.7261 C.ar    1  UNL1        0.0091
     18 C         142.3240  143.3198  159.8162 C.ar    1  UNL1        0.0300
     19 C         142.6163  143.9580  158.4906 C.ar    1  UNL1        0.1672
     20 F         143.6473  143.3587  157.5808 F       1  UNL1       -0.2018
     21 C         141.8776  145.1955  158.0749 C.ar    1  UNL1        0.1696
     22 F         142.1699  145.8337  156.7493 F       1  UNL1       -0.2017
     23 C         140.8466  145.7948  158.9848 C.ar    1  UNL1        0.0612
     24 C         140.5543  145.1566  160.3104 C.ar    1  UNL1        0.1386
     25 F         139.5233  145.7559  161.2203 F       1  UNL1       -0.2044
     26 C         139.9237  140.2968  169.7294 C.3     1  UNL1        0.4349
     27 F         140.2463  140.3383  171.1937 F       1  UNL1       -0.1644
     28 F         141.1902  139.5355  169.4720 F       1  UNL1       -0.1644
     29 F         138.6572  141.0581  169.9869 F       1  UNL1       -0.1644
@<TRIPOS>BOND
     1     2     1    1
     2     2     3    1
     3     3     4    1
     4     4     5   ar
     5     5     6   ar
     6     6     7   ar
     7     7     8   ar
     8     8     9   ar
     9     9    10   ar
    10    10    26    1
    11    26    27    1
    12    26    28    1
    13    26    29    1
    14    10    11   ar
    15    11    12   ar
    16     5    13    1
    17    13    14    1
    18    14    17    1
    19    17    18   ar
    20    18    19   ar
    21    19    20    1
    22    19    21   ar
    23    21    22    1
    24    21    23   ar
    25    23    24   ar
    26    24    25    1
    27    14     2    1
    28    24    17   ar
    29    12     4   ar
    30    12     7   ar
    31     1    15    1
    32     1    16    1
@<TRIPOS>MOLECULE
*****
 29 32 0 0 0
SMALL
GASTEIGER

@<TRIPOS>ATOM
      1 N         142.8714  142.3288  165.9343 N.3     1  UNL1       -0.3204
      2 C         142.5888  141.1513  165.0491 C.3     1  UNL1        0.0783
      3 C         143.0084  141.1776  163.6092 C.3     1  UNL1        0.1229
      4 N         142.7258  140.0002  162.7240 N.ar    1  UNL1       -0.3134
      5 C         142.0235  138.7963  163.2786 C.ar    1  UNL1        0.1207
      6 N         141.8818  137.7923  162.1733 N.ar    1  UNL1       -0.2294
      7 C         142.4964  138.3755  160.9355 C.ar    1  UNL1        0.1174
      8 C         142.6484  137.8404  159.5425 C.ar    1  UNL1        0.1193
      9 N         143.3221  138.6699  158.4899 N.ar    1  UNL1       -0.2382
     10 C         143.8437  140.0345  158.8302 C.ar    1  UNL1        0.1542
     11 C         143.6917  140.5696  160.2232 C.ar    1  UNL1        0.0418
     12 C         143.0180  139.7401  161.2759 C.ar    1  UNL1        0.0816
     13 C         141.6039  138.7700  164.7185 C.3     1  UNL1        0.0698
     14 C         141.8865  139.9474  165.6037 C.3     1  UNL1        0.0482
     15 H         143.3507  143.0511  165.3967 H       1  UNL1        0.1189
     16 H         143.4625  142.0354  166.7121 H       1  UNL1        0.1189
     17 C         141.4669  139.9211  167.0436 C.ar    1  UNL1        0.0091
     18 C         142.4509  139.5255  168.1045 C.ar    1  UNL1        0.0300
     19 C         142.0313  139.4992  169.5443 C.ar    1  UNL1        0.1672
     20 F         143.0152  139.1036  170.6052 F       1  UNL1       -0.2018
     21 C         140.6278  139.8683  169.9233 C.ar    1  UNL1        0.1696
     22 F         140.2082  139.8420  171.3632 F       1  UNL1       -0.2017
     23 C         139.6438  140.2639  168.8625 C.ar    1  UNL1        0.0612
     24 C         140.0634  140.2902  167.4226 C.ar    1  UNL1        0.1386
     25 F         139.0794  140.6858  166.3618 F       1  UNL1       -0.2044
     26 C         144.5174  140.8639  157.7775 C.3     1  UNL1        0.4349
     27 F         145.1911  141.6933  156.7248 F       1  UNL1       -0.1644
     28 F         144.7691  141.9429  158.7886 F       1  UNL1       -0.1644
     29 F         144.2657  139.7850  156.7663 F       1  UNL1       -0.1644
@<TRIPOS>BOND
     1     2     1    1
     2     2     3    1
     3     3     4    1
     4     4     5   ar
     5     5     6   ar
     6     6     7   ar
     7     7     8   ar
     8     8     9   ar
     9     9    10   ar
    10    10    26    1
    11    26    27    1
    12    26    28    1
    13    26    29    1
    14    10    11   ar
    15    11    12   ar
    16     5    13    1
    17    13    14    1
    18    14    17    1
    19    17    18   ar
    20    18    19   ar
    21    19    20    1
    22    19    21   ar
    23    21    22    1
    24    21    23   ar
    25    23    24   ar
    26    24    25    1
    27    14     2    1
    28    24    17   ar
    29    12     4   ar
    30    12     7   ar
    31     1    15    1
    32     1    16    1
@<TRIPOS>MOLECULE
*****
 29 32 0 0 0
SMALL
GASTEIGER

@<TRIPOS>ATOM
      1 N         144.1179  140.6588  164.7283 N.3     1  UNL1       -0.3204
      2 C         143.0722  141.7143  164.5223 C.3     1  UNL1        0.0783
      3 C         142.8521  142.2958  163.1572 C.3     1  UNL1        0.1229
      4 N         141.8064  143.3513  162.9512 N.ar    1  UNL1       -0.3134
      5 C         140.9808  143.8253  164.1103 C.ar    1  UNL1        0.1207
      6 N         140.0307  144.8707  163.6058 N.ar    1  UNL1       -0.2294
      7 C         140.2691  145.0427  162.1349 C.ar    1  UNL1        0.1174
      8 C         139.6286  145.9330  161.1117 C.ar    1  UNL1        0.1193
      9 N         140.0856  145.8843  159.6839 N.ar    1  UNL1       -0.2382
     10 C         141.1831  144.9452  159.2793 C.ar    1  UNL1        0.1542
     11 C         141.8236  144.0549  160.3025 C.ar    1  UNL1        0.0418
     12 C         141.3666  144.1036  161.7303 C.ar    1  UNL1        0.0816
     13 C         141.2009  143.2439  165.4755 C.3     1  UNL1        0.0698
     14 C         142.2466  142.1884  165.6814 C.3     1  UNL1        0.0482
     15 H         144.5791  140.4593  163.8406 H       1  UNL1        0.1189
     16 H         143.6782  139.8089  165.0815 H       1  UNL1        0.1189
     17 C         142.4666  141.6070  167.0466 C.ar    1  UNL1        0.0091
     18 C         143.2423  142.3772  168.0737 C.ar    1  UNL1        0.0300
     19 C         143.4623  141.7958  169.4388 C.ar    1  UNL1        0.1672
     20 F         144.2380  142.5660  170.4660 F       1  UNL1       -0.2018
     21 C         142.9068  140.4441  169.7767 C.ar    1  UNL1        0.1696
     22 F         143.1268  139.8627  171.1418 F       1  UNL1       -0.2017
     23 C         142.1311  139.6739  168.7496 C.ar    1  UNL1        0.0612
     24 C         141.9111  140.2553  167.3845 C.ar    1  UNL1        0.1386
     25 F         141.1354  139.4851  166.3573 F       1  UNL1       -0.2044
     26 C         141.6401  144.8966  157.8514 C.3     1  UNL1        0.4349
     27 F         142.0971  144.8479  156.4235 F       1  UNL1       -0.1644
     28 F         141.1060  143.5004  157.7279 F       1  UNL1       -0.1644
     29 F         142.1743  146.2927  157.9748 F       1  UNL1       -0.1644
@<TRIPOS>BOND
     1     2     1    1
     2     2     3    1
     3     3     4    1
     4     4     5   ar
     5     5     6   ar
     6     6     7   ar
     7     7     8   ar
     8     8     9   ar
     9     9    10   ar
    10    10    26    1
    11    26    27    1
    12    26    28    1
    13    26    29    1
    14    10    11   ar
    15    11    12   ar
    16     5    13    1
    17    13    14    1
    18    14    17    1
    19    17    18   ar
    20    18    19   ar
    21    19    20    1
    22    19    21   ar
    23    21    22    1
    24    21    23   ar
    25    23    24   ar
    26    24    25    1
    27    14     2    1
    28    24    17   ar
    29    12     4   ar
    30    12     7   ar
    31     1    15    1
    32     1    16    1
@<TRIPOS>MOLECULE
*****
 29 32 0 0 0
SMALL
GASTEIGER

@<TRIPOS>ATOM
      1 N         142.3665  139.3881  166.2657 N.3     1  UNL1       -0.3204
      2 C         141.1966  139.8159  165.4299 C.3     1  UNL1        0.0783
      3 C         141.1320  139.4366  163.9801 C.3     1  UNL1        0.1229
      4 N         139.9622  139.8643  163.1443 N.ar    1  UNL1       -0.3134
      5 C         138.8569  140.6713  163.7584 C.ar    1  UNL1        0.1207
      6 N         137.8376  140.9472  162.6931 N.ar    1  UNL1       -0.2294
      7 C         138.3129  140.3108  161.4207 C.ar    1  UNL1        0.1174
      8 C         137.7197  140.2542  160.0442 C.ar    1  UNL1        0.1193
      9 N         138.4395  139.5284  158.9466 N.ar    1  UNL1       -0.2382
     10 C         139.7526  138.8591  159.2254 C.ar    1  UNL1        0.1542
     11 C         140.3459  138.9156  160.6019 C.ar    1  UNL1        0.0418
     12 C         139.6260  139.6415  161.6996 C.ar    1  UNL1        0.0816
     13 C         138.9215  141.0506  165.2082 C.3     1  UNL1        0.0698
     14 C         140.0913  140.6229  166.0440 C.3     1  UNL1        0.0482
     15 H         143.0169  138.8521  165.6912 H       1  UNL1        0.1189
     16 H         142.0385  138.8089  167.0386 H       1  UNL1        0.1189
     17 C         140.1559  141.0022  167.4938 C.ar    1  UNL1        0.0091
     18 C         141.0438  142.1275  167.9359 C.ar    1  UNL1        0.0300
     19 C         141.1083  142.5068  169.3857 C.ar    1  UNL1        0.1672
     20 F         141.9962  143.6320  169.8277 F       1  UNL1       -0.2018
     21 C         140.2850  141.7608  170.3934 C.ar    1  UNL1        0.1696
     22 F         140.3495  142.1401  171.8432 F       1  UNL1       -0.2017
     23 C         139.3971  140.6355  169.9514 C.ar    1  UNL1        0.0612
     24 C         139.3326  140.2562  168.5015 C.ar    1  UNL1        0.1386
     25 F         138.4447  139.1310  168.0595 F       1  UNL1       -0.2044
     26 C         140.4725  138.1332  158.1277 C.3     1  UNL1        0.4349
     27 F         141.1924  137.4073  157.0301 F       1  UNL1       -0.1644
     28 F         139.2717  138.2826  157.2414 F       1  UNL1       -0.1644
     29 F         141.6733  137.9837  159.0140 F       1  UNL1       -0.1644
@<TRIPOS>BOND
     1     2     1    1
     2     2     3    1
     3     3     4    1
     4     4     5   ar
     5     5     6   ar
     6     6     7   ar
     7     7     8   ar
     8     8     9   ar
     9     9    10   ar
    10    10    26    1
    11    26    27    1
    12    26    28    1
    13    26    29    1
    14    10    11   ar
    15    11    12   ar
    16     5    13    1
    17    13    14    1
    18    14    17    1
    19    17    18   ar
    20    18    19   ar
    21    19    20    1
    22    19    21   ar
    23    21    22    1
    24    21    23   ar
    25    23    24   ar
    26    24    25    1
    27    14     2    1
    28    24    17   ar
    29    12     4   ar
    30    12     7   ar
    31     1    15    1
    32     1    16    1
@<TRIPOS>MOLECULE
*****
 29 32 0 0 0
SMALL
GASTEIGER

@<TRIPOS>ATOM
      1 N         143.0636  140.0777  165.7929 N.3     1  UNL1       -0.3204
      2 C         142.3617  141.2701  165.2136 C.3     1  UNL1        0.0783
      3 C         142.5712  141.6377  163.7745 C.3     1  UNL1        0.1229
      4 N         141.8693  142.8300  163.1951 N.ar    1  UNL1       -0.3134
      5 C         140.9579  143.6548  164.0548 C.ar    1  UNL1        0.1207
      6 N         140.4060  144.7661  163.2121 N.ar    1  UNL1       -0.2294
      7 C         140.9762  144.6283  161.8316 C.ar    1  UNL1        0.1174
      8 C         140.7888  145.4377  160.5828 C.ar    1  UNL1        0.1193
      9 N         141.5057  145.0506  159.3234 N.ar    1  UNL1       -0.2382
     10 C         142.4102  143.8539  159.3129 C.ar    1  UNL1        0.1542
     11 C         142.5976  143.0445  160.5617 C.ar    1  UNL1        0.0418
     12 C         141.8806  143.4317  161.8211 C.ar    1  UNL1        0.0816
     13 C         140.7484  143.2872  165.4939 C.3     1  UNL1        0.0698
     14 C         141.4503  142.0949  166.0733 C.3     1  UNL1        0.0482
     15 H         143.6376  139.6382  165.0734 H       1  UNL1        0.1189
     16 H         142.3729  139.4085  166.1327 H       1  UNL1        0.1189
     17 C         141.2407  141.7273  167.5124 C.ar    1  UNL1        0.0091
     18 C         139.9508  141.0957  167.9450 C.ar    1  UNL1        0.0300
     19 C         139.7413  140.7281  169.3841 C.ar    1  UNL1        0.1672
     20 F         138.4514  140.0965  169.8167 F       1  UNL1       -0.2018
     21 C         140.8217  140.9922  170.3905 C.ar    1  UNL1        0.1696
     22 F         140.6122  140.6246  171.8296 F       1  UNL1       -0.2017
     23 C         142.1116  141.6238  169.9579 C.ar    1  UNL1        0.0612
     24 C         142.3211  141.9914  168.5188 C.ar    1  UNL1        0.1386
     25 F         143.6110  142.6230  168.0862 F       1  UNL1       -0.2044
     26 C         143.1272  143.4668  158.0535 C.3     1  UNL1        0.4349
     27 F         143.8441  143.0796  156.7941 F       1  UNL1       -0.1644
     28 F         142.7983  144.8026  157.4556 F       1  UNL1       -0.1644
     29 F         143.4560  142.1310  158.6513 F       1  UNL1       -0.1644
@<TRIPOS>BOND
     1     2     1    1
     2     2     3    1
     3     3     4    1
     4     4     5   ar
     5     5     6   ar
     6     6     7   ar
     7     7     8   ar
     8     8     9   ar
     9     9    10   ar
    10    10    26    1
    11    26    27    1
    12    26    28    1
    13    26    29    1
    14    10    11   ar
    15    11    12   ar
    16     5    13    1
    17    13    14    1
    18    14    17    1
    19    17    18   ar
    20    18    19   ar
    21    19    20    1
    22    19    21   ar
    23    21    22    1
    24    21    23   ar
    25    23    24   ar
    26    24    25    1
    27    14     2    1
    28    24    17   ar
    29    12     4   ar
    30    12     7   ar
    31     1    15    1
    32     1    16    1
@<TRIPOS>MOLECULE
*****
 29 32 0 0 0
SMALL
GASTEIGER

@<TRIPOS>ATOM
      1 N         140.1556  145.4232  163.9010 N.3     1  UNL1       -0.3204
      2 C         140.8334  144.8701  162.6825 C.3     1  UNL1        0.0783
      3 C         140.5029  145.4191  161.3262 C.3     1  UNL1        0.1229
      4 N         141.1806  144.8660  160.1077 N.ar    1  UNL1       -0.3134
      5 C         142.1888  143.7640  160.2455 C.ar    1  UNL1        0.1207
      6 N         142.6910  143.4212  158.8742 N.ar    1  UNL1       -0.2294
      7 C         141.9932  144.3114  157.8890 C.ar    1  UNL1        0.1174
      8 C         142.0872  144.4242  156.3963 C.ar    1  UNL1        0.1193
      9 N         141.2477  145.4300  155.6659 N.ar    1  UNL1       -0.2382
     10 C         140.3142  146.3230  156.4282 C.ar    1  UNL1        0.1542
     11 C         140.2202  146.2102  157.9210 C.ar    1  UNL1        0.0418
     12 C         141.0597  145.2043  158.6514 C.ar    1  UNL1        0.0816
     13 C         142.5193  143.2150  161.6017 C.3     1  UNL1        0.0698
     14 C         141.8416  143.7680  162.8202 C.3     1  UNL1        0.0482
     15 H         139.5065  146.1597  163.6242 H       1  UNL1        0.1189
     16 H         140.8563  145.8080  164.5346 H       1  UNL1        0.1189
     17 C         142.1721  143.2190  164.1765 C.ar    1  UNL1        0.0091
     18 C         141.1734  142.3701  164.9057 C.ar    1  UNL1        0.0300
     19 C         141.5039  141.8211  166.2620 C.ar    1  UNL1        0.1672
     20 F         140.5051  140.9721  166.9912 F       1  UNL1       -0.2018
     21 C         142.8331  142.1211  166.8889 C.ar    1  UNL1        0.1696
     22 F         143.1635  141.5721  168.2452 F       1  UNL1       -0.2017
     23 C         143.8318  142.9700  166.1597 C.ar    1  UNL1        0.0612
     24 C         143.5013  143.5190  164.8034 C.ar    1  UNL1        0.1386
     25 F         144.5000  144.3679  164.0742 F       1  UNL1       -0.2044
     26 C         139.4747  147.3288  155.6977 C.3     1  UNL1        0.4349
     27 F         138.6352  148.3346  154.9672 F       1  UNL1       -0.1644
     28 F         138.8584  147.7576  156.9963 F       1  UNL1       -0.1644
     29 F         140.0910  146.9001  154.3992 F       1  UNL1       -0.1644
@<TRIPOS>BOND
     1     2     1    1
     2     2     3    1
     3     3     4    1
     4     4     5   ar
     5     5     6   ar
     6     6     7   ar
     7     7     8   ar
     8     8     9   ar
     9     9    10   ar
    10    10    26    1
    11    26    27    1
    12    26    28    1
    13    26    29    1
    14    10    11   ar
    15    11    12   ar
    16     5    13    1
    17    13    14    1
    18    14    17    1
    19    17    18   ar
    20    18    19   ar
    21    19    20    1
    22    19    21   ar
    23    21    22    1
    24    21    23   ar
    25    23    24   ar
    26    24    25    1
    27    14     2    1
    28    24    17   ar
    29    12     4   ar
    30    12     7   ar
    31     1    15    1
    32     1    16    1
@<TRIPOS>MOLECULE
*****
 29 32 0 0 0
SMALL
GASTEIGER

@<TRIPOS>ATOM
      1 N         139.3838  140.3339  166.1532 N.3     1  UNL1       -0.3204
      2 C         139.7998  141.3958  165.1788 C.3     1  UNL1        0.0783
      3 C         139.3240  141.3375  163.7575 C.3     1  UNL1        0.1229
      4 N         139.7400  142.3994  162.7831 N.ar    1  UNL1       -0.3134
      5 C         140.6318  143.5196  163.2302 C.ar    1  UNL1        0.1207
      6 N         140.8745  144.4168  162.0528 N.ar    1  UNL1       -0.2294
      7 C         140.1327  143.8511  160.8782 C.ar    1  UNL1        0.1174
      8 C         140.0052  144.3103  159.4559 C.ar    1  UNL1        0.1193
      9 N         139.1764  143.5226  158.4850 N.ar    1  UNL1       -0.2382
     10 C         138.4752  142.2758  158.9364 C.ar    1  UNL1        0.1542
     11 C         138.6028  141.8166  160.3587 C.ar    1  UNL1        0.0418
     12 C         139.4315  142.6043  161.3295 C.ar    1  UNL1        0.0816
     13 C         141.1076  143.5779  164.6515 C.3     1  UNL1        0.0698
     14 C         140.6916  142.5160  165.6258 C.3     1  UNL1        0.0482
     15 H         138.7833  139.6570  165.6824 H       1  UNL1        0.1189
     16 H         138.8732  140.7621  166.9254 H       1  UNL1        0.1189
     17 C         141.1675  142.5743  167.0472 C.ar    1  UNL1        0.0091
     18 C         140.2758  143.1370  168.1141 C.ar    1  UNL1        0.0300
     19 C         140.7517  143.1953  169.5355 C.ar    1  UNL1        0.1672
     20 F         139.8600  143.7579  170.6024 F       1  UNL1       -0.2018
     21 C         142.1191  142.6909  169.8898 C.ar    1  UNL1        0.1696
     22 F         142.5949  142.7492  171.3111 F       1  UNL1       -0.2017
     23 C         143.0107  142.1283  168.8229 C.ar    1  UNL1        0.0612
     24 C         142.5349  142.0700  167.4015 C.ar    1  UNL1        0.1386
     25 F         143.4266  141.5073  166.3346 F       1  UNL1       -0.2044
     26 C         137.6464  141.4881  157.9654 C.3     1  UNL1        0.4349
     27 F         136.8177  140.7005  156.9945 F       1  UNL1       -0.1644
     28 F         138.0191  140.2205  158.6756 F       1  UNL1       -0.1644
     29 F         137.2737  142.7556  157.2553 F       1  UNL1       -0.1644
@<TRIPOS>BOND
     1     2     1    1
     2     2     3    1
     3     3     4    1
     4     4     5   ar
     5     5     6   ar
     6     6     7   ar
     7     7     8   ar
     8     8     9   ar
     9     9    10   ar
    10    10    26    1
    11    26    27    1
    12    26    28    1
    13    26    29    1
    14    10    11   ar
    15    11    12   ar
    16     5    13    1
    17    13    14    1
    18    14    17    1
    19    17    18   ar
    20    18    19   ar
    21    19    20    1
    22    19    21   ar
    23    21    22    1
    24    21    23   ar
    25    23    24   ar
    26    24    25    1
    27    14     2    1
    28    24    17   ar
    29    12     4   ar
    30    12     7   ar
    31     1    15    1
    32     1    16    1
