@<TRIPOS>MOLECULE
*****
 26 29 0 0 0
SMALL
GASTEIGER

@<TRIPOS>ATOM
      1 C         139.2744  141.8597  164.6200 C.ar    1  UNL1        0.0182
      2 C         138.1243  142.7817  164.3422 C.ar    1  UNL1        0.0023
      3 C         137.7956  143.1664  162.9301 C.ar    1  UNL1        0.0367
      4 C         138.6171  142.6291  161.7959 C.ar    1  UNL1        0.1385
      5 C         139.7672  141.7071  162.0738 C.ar    1  UNL1        0.0367
      6 C         140.0958  141.3224  163.4858 C.ar    1  UNL1        0.0023
      7 C         138.1815  139.3156  165.7746 C.3     1  UNL1        0.0162
      8 C         139.0566  140.2030  166.6095 C.3     1  UNL1        0.0963
      9 S         139.3852  139.8183  168.0215 S.3     1  UNL1       -0.1075
     10 C         140.2602  140.7057  168.8564 C.ar    1  UNL1        0.0593
     11 C         140.5888  140.3210  170.2685 C.ar    1  UNL1        0.0092
     12 C         141.4638  141.2084  171.1033 C.ar    1  UNL1        0.0007
     13 C         142.0102  142.4804  170.5260 C.ar    1  UNL1        0.0031
     14 C         141.6816  142.8651  169.1139 C.ar    1  UNL1        0.0374
     15 C         140.8066  141.9777  168.2791 C.ar    1  UNL1        0.1444
     16 O         140.4780  142.3624  166.8669 O.3     1  UNL1       -0.4734
     17 C         139.6030  141.4750  166.0322 C.3     1  UNL1        0.1982
     18 O         138.2884  143.0137  160.3837 O.3     1  UNL1       -0.4754
     19 C         139.3909  143.3229  159.4147 C.3     1  UNL1        0.2068
     20 C         140.0734  144.6580  159.4562 C.3     1  UNL1        0.0646
     21 C         141.4479  144.7798  160.0443 C.3     1  UNL1        0.0759
     22 N         141.6372  144.7038  161.5304 N.3     1  UNL1       -0.2726
     23 C         142.7090  143.9346  162.2445 C.3     1  UNL1        0.0721
     24 C         142.5222  144.1391  163.7187 C.3     1  UNL1        0.0188
     25 C         141.3351  145.0346  163.9158 C.3     1  UNL1        0.0188
     26 C         140.7881  145.3836  162.5633 C.3     1  UNL1        0.0721
@<TRIPOS>BOND
     1     8     7    1
     2     8     9    1
     3     9    10    1
     4    10    11   ar
     5    11    12   ar
     6    12    13   ar
     7    13    14   ar
     8    14    15   ar
     9    15    16    1
    10    16    17    1
    11    17     1    1
    12     1     2   ar
    13     2     3   ar
    14     3     4   ar
    15     4    18    1
    16    18    19    1
    17    19    20    1
    18    20    21    1
    19    21    22    1
    20    22    23    1
    21    23    24    1
    22    24    25    1
    23    25    26    1
    24     4     5   ar
    25     5     6   ar
    26    17     8    1
    27     6     1   ar
    28    15    10   ar
    29    26    22    1
@<TRIPOS>MOLECULE
*****
 26 29 0 0 0
SMALL
GASTEIGER

@<TRIPOS>ATOM
      1 C         140.8435  139.4021  165.0506 C.ar    1  UNL1        0.0182
      2 C         140.4911  140.2686  163.8780 C.ar    1  UNL1        0.0023
      3 C         140.5119  139.6982  162.4909 C.ar    1  UNL1        0.0367
      4 C         140.8850  138.2613  162.2764 C.ar    1  UNL1        0.1385
      5 C         141.2374  137.3948  163.4490 C.ar    1  UNL1        0.0367
      6 C         141.2166  137.9652  164.8361 C.ar    1  UNL1        0.0023
      7 C         138.4348  139.0136  166.7963 C.3     1  UNL1        0.0162
      8 C         139.6183  139.7783  167.3107 C.3     1  UNL1        0.0963
      9 S         139.5975  140.3487  168.6978 S.3     1  UNL1       -0.1075
     10 C         140.7811  141.1134  169.2121 C.ar    1  UNL1        0.0593
     11 C         140.7602  141.6838  170.5992 C.ar    1  UNL1        0.0092
     12 C         141.9437  142.4485  171.1135 C.ar    1  UNL1        0.0007
     13 C         143.1481  142.6428  170.2407 C.ar    1  UNL1        0.0031
     14 C         143.1689  142.0724  168.8536 C.ar    1  UNL1        0.0374
     15 C         141.9854  141.3077  168.3393 C.ar    1  UNL1        0.1444
     16 O         142.0062  140.7372  166.9521 O.3     1  UNL1       -0.4734
     17 C         140.8227  139.9726  166.4378 C.3     1  UNL1        0.1982
     18 O         140.9058  137.6909  160.8892 O.3     1  UNL1       -0.4754
     19 C         141.9307  138.1612  159.9001 C.3     1  UNL1        0.2068
     20 C         143.3651  138.3017  160.3158 C.3     1  UNL1        0.0646
     21 C         143.9178  139.6535  160.6580 C.3     1  UNL1        0.0759
     22 N         144.0622  140.0632  162.0937 N.3     1  UNL1       -0.2726
     23 C         144.4211  139.1603  163.2365 C.3     1  UNL1        0.0721
     24 C         144.4537  139.9869  164.4878 C.3     1  UNL1        0.0188
     25 C         144.1149  141.4007  164.1184 C.3     1  UNL1        0.0188
     26 C         143.8729  141.4479  162.6387 C.3     1  UNL1        0.0721
@<TRIPOS>BOND
     1     8     7    1
     2     8     9    1
     3     9    10    1
     4    10    11   ar
     5    11    12   ar
     6    12    13   ar
     7    13    14   ar
     8    14    15   ar
     9    15    16    1
    10    16    17    1
    11    17     1    1
    12     1     2   ar
    13     2     3   ar
    14     3     4   ar
    15     4    18    1
    16    18    19    1
    17    19    20    1
    18    20    21    1
    19    21    22    1
    20    22    23    1
    21    23    24    1
    22    24    25    1
    23    25    26    1
    24     4     5   ar
    25     5     6   ar
    26    17     8    1
    27     6     1   ar
    28    15    10   ar
    29    26    22    1
@<TRIPOS>MOLECULE
*****
 26 29 0 0 0
SMALL
GASTEIGER

@<TRIPOS>ATOM
      1 C         139.2512  141.9828  164.5987 C.ar    1  UNL1        0.0182
      2 C         140.1907  141.6631  163.4740 C.ar    1  UNL1        0.0023
      3 C         139.8664  142.1040  162.0775 C.ar    1  UNL1        0.0367
      4 C         138.6025  142.8646  161.8057 C.ar    1  UNL1        0.1385
      5 C         137.6629  143.1843  162.9304 C.ar    1  UNL1        0.0367
      6 C         137.9872  142.7434  164.3269 C.ar    1  UNL1        0.0023
      7 C         138.3044  139.3130  165.5867 C.3     1  UNL1        0.0162
      8 C         139.1022  140.2069  166.4893 C.3     1  UNL1        0.0963
      9 S         139.4266  139.7659  167.8858 S.3     1  UNL1       -0.1075
     10 C         140.2244  140.6598  168.7884 C.ar    1  UNL1        0.0593
     11 C         140.5487  140.2188  170.1849 C.ar    1  UNL1        0.0092
     12 C         141.3465  141.1127  171.0874 C.ar    1  UNL1        0.0007
     13 C         141.8199  142.4475  170.5934 C.ar    1  UNL1        0.0031
     14 C         141.4955  142.8885  169.1969 C.ar    1  UNL1        0.0374
     15 C         140.6977  141.9947  168.2944 C.ar    1  UNL1        0.1444
     16 O         140.3733  142.4357  166.8978 O.3     1  UNL1       -0.4734
     17 C         139.5756  141.5418  165.9953 C.3     1  UNL1        0.1982
     18 O         138.2780  143.3056  160.4091 O.3     1  UNL1       -0.4754
     19 C         139.0096  142.7068  159.2445 C.3     1  UNL1        0.2068
     20 C         138.2874  141.8035  158.2893 C.3     1  UNL1        0.0646
     21 C         138.4918  140.3192  158.3607 C.3     1  UNL1        0.0759
     22 N         138.5031  139.6268  159.6913 N.3     1  UNL1       -0.2726
     23 C         137.3978  139.6470  160.7052 C.3     1  UNL1        0.0721
     24 C         137.8333  138.8253  161.8821 C.3     1  UNL1        0.0188
     25 C         139.2078  138.2973  161.5957 C.3     1  UNL1        0.0188
     26 C         139.6218  138.7927  160.2416 C.3     1  UNL1        0.0721
@<TRIPOS>BOND
     1     8     7    1
     2     8     9    1
     3     9    10    1
     4    10    11   ar
     5    11    12   ar
     6    12    13   ar
     7    13    14   ar
     8    14    15   ar
     9    15    16    1
    10    16    17    1
    11    17     1    1
    12     1     2   ar
    13     2     3   ar
    14     3     4   ar
    15     4    18    1
    16    18    19    1
    17    19    20    1
    18    20    21    1
    19    21    22    1
    20    22    23    1
    21    23    24    1
    22    24    25    1
    23    25    26    1
    24     4     5   ar
    25     5     6   ar
    26    17     8    1
    27     6     1   ar
    28    15    10   ar
    29    26    22    1
@<TRIPOS>MOLECULE
*****
 26 29 0 0 0
SMALL
GASTEIGER

@<TRIPOS>ATOM
      1 C         142.9024  140.2009  164.8016 C.ar    1  UNL1        0.0182
      2 C         141.9317  139.5918  163.8338 C.ar    1  UNL1        0.0023
      3 C         142.3177  139.4156  162.3951 C.ar    1  UNL1        0.0367
      4 C         143.6744  139.8486  161.9242 C.ar    1  UNL1        0.1385
      5 C         144.6451  140.4578  162.8920 C.ar    1  UNL1        0.0367
      6 C         144.2591  140.6339  164.3307 C.ar    1  UNL1        0.0023
      7 C         143.6267  138.1001  166.8170 C.3     1  UNL1        0.0162
      8 C         142.8785  139.3267  167.2481 C.3     1  UNL1        0.0963
      9 S         142.4925  139.5028  168.6868 S.3     1  UNL1       -0.1075
     10 C         141.7443  140.7293  169.1179 C.ar    1  UNL1        0.0593
     11 C         141.3582  140.9054  170.5566 C.ar    1  UNL1        0.0092
     12 C         140.6100  142.1320  170.9876 C.ar    1  UNL1        0.0007
     13 C         140.2479  143.1824  169.9799 C.ar    1  UNL1        0.0031
     14 C         140.6339  143.0063  168.5412 C.ar    1  UNL1        0.0374
     15 C         141.3821  141.7798  168.1102 C.ar    1  UNL1        0.1444
     16 O         141.7682  141.6036  166.6714 O.3     1  UNL1       -0.4734
     17 C         142.5163  140.3771  166.2404 C.3     1  UNL1        0.1982
     18 O         144.0605  139.6724  160.4854 O.3     1  UNL1       -0.4754
     19 C         143.8918  140.8074  159.5193 C.3     1  UNL1        0.2068
     20 C         142.8492  141.8564  159.7692 C.3     1  UNL1        0.0646
     21 C         143.2532  143.2108  160.2715 C.3     1  UNL1        0.0759
     22 N         143.1268  143.5383  161.7298 N.3     1  UNL1       -0.2726
     23 C         144.1893  144.1555  162.5902 C.3     1  UNL1        0.0721
     24 C         143.6349  144.3048  163.9759 C.3     1  UNL1        0.0188
     25 C         142.2297  143.7798  163.9721 C.3     1  UNL1        0.0188
     26 C         141.9157  143.3061  162.5838 C.3     1  UNL1        0.0721
@<TRIPOS>BOND
     1     8     7    1
     2     8     9    1
     3     9    10    1
     4    10    11   ar
     5    11    12   ar
     6    12    13   ar
     7    13    14   ar
     8    14    15   ar
     9    15    16    1
    10    16    17    1
    11    17     1    1
    12     1     2   ar
    13     2     3   ar
    14     3     4   ar
    15     4    18    1
    16    18    19    1
    17    19    20    1
    18    20    21    1
    19    21    22    1
    20    22    23    1
    21    23    24    1
    22    24    25    1
    23    25    26    1
    24     4     5   ar
    25     5     6   ar
    26    17     8    1
    27     6     1   ar
    28    15    10   ar
    29    26    22    1
@<TRIPOS>MOLECULE
*****
 26 29 0 0 0
SMALL
GASTEIGER

@<TRIPOS>ATOM
      1 C         139.8644  139.4640  164.9160 C.ar    1  UNL1        0.0182
      2 C         140.4412  138.1567  164.4597 C.ar    1  UNL1        0.0023
      3 C         140.1497  137.6496  163.0785 C.ar    1  UNL1        0.0367
      4 C         139.2814  138.4498  162.1535 C.ar    1  UNL1        0.1385
      5 C         138.7046  139.7571  162.6098 C.ar    1  UNL1        0.0367
      6 C         138.9961  140.2642  163.9910 C.ar    1  UNL1        0.0023
      7 C         137.9520  138.8968  167.1567 C.3     1  UNL1        0.0162
      8 C         139.1997  139.6875  167.4177 C.3     1  UNL1        0.0963
      9 S         139.4912  140.1945  168.7989 S.3     1  UNL1       -0.1075
     10 C         140.7389  140.9853  169.0598 C.ar    1  UNL1        0.0593
     11 C         141.0304  141.4923  170.4411 C.ar    1  UNL1        0.0092
     12 C         142.2780  142.2830  170.7020 C.ar    1  UNL1        0.0007
     13 C         143.2342  142.5666  169.5816 C.ar    1  UNL1        0.0031
     14 C         142.9428  142.0595  168.2004 C.ar    1  UNL1        0.0374
     15 C         141.6951  141.2689  167.9395 C.ar    1  UNL1        0.1444
     16 O         141.4036  140.7618  166.5582 O.3     1  UNL1       -0.4734
     17 C         140.1559  139.9711  166.2973 C.3     1  UNL1        0.1982
     18 O         138.9899  137.9427  160.7722 O.3     1  UNL1       -0.4754
     19 C         139.6630  138.5676  159.5863 C.3     1  UNL1        0.2068
     20 C         141.0715  139.0704  159.7021 C.3     1  UNL1        0.0646
     21 C         141.3288  140.5127  160.0241 C.3     1  UNL1        0.0759
     22 N         141.8679  140.8960  161.3703 N.3     1  UNL1       -0.2726
     23 C         142.7826  140.0669  162.2225 C.3     1  UNL1        0.0721
     24 C         143.0670  140.8341  163.4796 C.3     1  UNL1        0.0188
     25 C         142.3281  142.1374  163.4045 C.3     1  UNL1        0.0188
     26 C         141.5870  142.1756  162.1008 C.3     1  UNL1        0.0721
@<TRIPOS>BOND
     1     8     7    1
     2     8     9    1
     3     9    10    1
     4    10    11   ar
     5    11    12   ar
     6    12    13   ar
     7    13    14   ar
     8    14    15   ar
     9    15    16    1
    10    16    17    1
    11    17     1    1
    12     1     2   ar
    13     2     3   ar
    14     3     4   ar
    15     4    18    1
    16    18    19    1
    17    19    20    1
    18    20    21    1
    19    21    22    1
    20    22    23    1
    21    23    24    1
    22    24    25    1
    23    25    26    1
    24     4     5   ar
    25     5     6   ar
    26    17     8    1
    27     6     1   ar
    28    15    10   ar
    29    26    22    1
@<TRIPOS>MOLECULE
*****
 26 29 0 0 0
SMALL
GASTEIGER

@<TRIPOS>ATOM
      1 C         141.8510  140.2716  164.4546 C.ar    1  UNL1        0.0182
      2 C         142.7996  139.1821  164.0508 C.ar    1  UNL1        0.0023
      3 C         143.1035  138.9519  162.6001 C.ar    1  UNL1        0.0367
      4 C         142.4589  139.8112  161.5532 C.ar    1  UNL1        0.1385
      5 C         141.5103  140.9008  161.9571 C.ar    1  UNL1        0.0367
      6 C         141.2064  141.1310  163.4078 C.ar    1  UNL1        0.0023
      7 C         139.4171  139.0293  165.6927 C.3     1  UNL1        0.0162
      8 C         140.3301  139.8806  166.5245 C.3     1  UNL1        0.0963
      9 S         140.0262  140.1108  167.9752 S.3     1  UNL1       -0.1075
     10 C         140.9392  140.9621  168.8069 C.ar    1  UNL1        0.0593
     11 C         140.6352  141.1922  170.2576 C.ar    1  UNL1        0.0092
     12 C         141.5482  142.0435  171.0893 C.ar    1  UNL1        0.0007
     13 C         142.7652  142.6647  170.4702 C.ar    1  UNL1        0.0031
     14 C         143.0691  142.4345  169.0195 C.ar    1  UNL1        0.0374
     15 C         142.1561  141.5832  168.1879 C.ar    1  UNL1        0.1444
     16 O         142.4601  141.3531  166.7371 O.3     1  UNL1       -0.4734
     17 C         141.5471  140.5018  165.9054 C.3     1  UNL1        0.1982
     18 O         142.7628  139.5810  160.1024 O.3     1  UNL1       -0.4754
     19 C         143.7610  140.4514  159.3980 C.3     1  UNL1        0.2068
     20 C         143.7713  141.9310  159.6437 C.3     1  UNL1        0.0646
     21 C         144.8793  142.5510  160.4424 C.3     1  UNL1        0.0759
     22 N         144.7637  142.6499  161.9346 N.3     1  UNL1       -0.2726
     23 C         143.9341  143.6451  162.6907 C.3     1  UNL1        0.0721
     24 C         144.1150  143.3813  164.1562 C.3     1  UNL1        0.0188
     25 C         145.0563  142.2231  164.3060 C.3     1  UNL1        0.0188
     26 C         145.4572  141.7711  162.9329 C.3     1  UNL1        0.0721
@<TRIPOS>BOND
     1     8     7    1
     2     8     9    1
     3     9    10    1
     4    10    11   ar
     5    11    12   ar
     6    12    13   ar
     7    13    14   ar
     8    14    15   ar
     9    15    16    1
    10    16    17    1
    11    17     1    1
    12     1     2   ar
    13     2     3   ar
    14     3     4   ar
    15     4    18    1
    16    18    19    1
    17    19    20    1
    18    20    21    1
    19    21    22    1
    20    22    23    1
    21    23    24    1
    22    24    25    1
    23    25    26    1
    24     4     5   ar
    25     5     6   ar
    26    17     8    1
    27     6     1   ar
    28    15    10   ar
    29    26    22    1
@<TRIPOS>MOLECULE
*****
 26 29 0 0 0
SMALL
GASTEIGER

@<TRIPOS>ATOM
      1 C         142.3255  141.6858  164.4656 C.ar    1  UNL1        0.0182
      2 C         143.5024  142.5169  164.0483 C.ar    1  UNL1        0.0023
      3 C         143.6800  142.8958  162.6079 C.ar    1  UNL1        0.0367
      4 C         142.6806  142.4436  161.5848 C.ar    1  UNL1        0.1385
      5 C         141.5037  141.6125  162.0021 C.ar    1  UNL1        0.0367
      6 C         141.3261  141.2336  163.4425 C.ar    1  UNL1        0.0023
      7 C         143.4634  139.1056  165.4892 C.3     1  UNL1        0.0162
      8 C         142.7169  140.0169  166.4179 C.3     1  UNL1        0.0963
      9 S         142.5393  139.6380  167.8584 S.3     1  UNL1       -0.1075
     10 C         141.7928  140.5492  168.7871 C.ar    1  UNL1        0.0593
     11 C         141.6153  140.1703  170.2275 C.ar    1  UNL1        0.0092
     12 C         140.8689  141.0816  171.1561 C.ar    1  UNL1        0.0007
     13 C         140.2999  142.3717  170.6444 C.ar    1  UNL1        0.0031
     14 C         140.4774  142.7505  169.2039 C.ar    1  UNL1        0.0374
     15 C         141.2239  141.8393  168.2753 C.ar    1  UNL1        0.1444
     16 O         141.4014  142.2182  166.8348 O.3     1  UNL1       -0.4734
     17 C         142.1479  141.3070  165.9061 C.3     1  UNL1        0.1982
     18 O         142.8582  142.8224  160.1442 O.3     1  UNL1       -0.4754
     19 C         141.7311  143.4682  159.3942 C.3     1  UNL1        0.2068
     20 C         141.4651  144.9354  159.5572 C.3     1  UNL1        0.0646
     21 C         140.2502  145.3988  160.3050 C.3     1  UNL1        0.0759
     22 N         140.0813  145.0465  161.7532 N.3     1  UNL1       -0.2726
     23 C         138.9354  144.2818  162.3468 C.3     1  UNL1        0.0721
     24 C         139.1744  144.1597  163.8226 C.3     1  UNL1        0.0188
     25 C         140.4680  144.8490  164.1412 C.3     1  UNL1        0.0188
     26 C         141.0285  145.3971  162.8622 C.3     1  UNL1        0.0721
@<TRIPOS>BOND
     1     8     7    1
     2     8     9    1
     3     9    10    1
     4    10    11   ar
     5    11    12   ar
     6    12    13   ar
     7    13    14   ar
     8    14    15   ar
     9    15    16    1
    10    16    17    1
    11    17     1    1
    12     1     2   ar
    13     2     3   ar
    14     3     4   ar
    15     4    18    1
    16    18    19    1
    17    19    20    1
    18    20    21    1
    19    21    22    1
    20    22    23    1
    21    23    24    1
    22    24    25    1
    23    25    26    1
    24     4     5   ar
    25     5     6   ar
    26    17     8    1
    27     6     1   ar
    28    15    10   ar
    29    26    22    1
@<TRIPOS>MOLECULE
*****
 26 29 0 0 0
SMALL
GASTEIGER

@<TRIPOS>ATOM
      1 C         141.5118  142.6606  163.4728 C.ar    1  UNL1        0.0182
      2 C         142.4755  143.1028  164.5338 C.ar    1  UNL1        0.0023
      3 C         142.5976  142.3221  165.8087 C.ar    1  UNL1        0.0367
      4 C         141.7560  141.0990  166.0226 C.ar    1  UNL1        0.1385
      5 C         140.7923  140.6568  164.9617 C.ar    1  UNL1        0.0367
      6 C         140.6702  141.4375  163.6868 C.ar    1  UNL1        0.0023
      7 C         139.6544  145.0119  163.3260 C.3     1  UNL1        0.0162
      8 C         140.4610  144.6171  162.1245 C.3     1  UNL1        0.0963
      9 S         140.3389  145.3979  160.8496 S.3     1  UNL1       -0.1075
     10 C         141.1455  145.0031  159.6480 C.ar    1  UNL1        0.0593
     11 C         141.0234  145.7840  158.3732 C.ar    1  UNL1        0.0092
     12 C         141.8300  145.3891  157.1717 C.ar    1  UNL1        0.0007
     13 C         142.7586  144.2135  157.2452 C.ar    1  UNL1        0.0031
     14 C         142.8808  143.4327  158.5200 C.ar    1  UNL1        0.0374
     15 C         142.0742  143.8275  159.7215 C.ar    1  UNL1        0.1444
     16 O         142.1963  143.0466  160.9964 O.3     1  UNL1       -0.4734
     17 C         141.3897  143.4414  162.1979 C.3     1  UNL1        0.1982
     18 O         141.8781  140.3182  167.2976 O.3     1  UNL1       -0.4754
     19 C         142.8606  139.1889  167.3943 C.3     1  UNL1        0.2068
     20 C         143.2781  138.4501  166.1574 C.3     1  UNL1        0.0646
     21 C         144.5675  138.7987  165.4749 C.3     1  UNL1        0.0759
     22 N         144.5508  139.5756  164.1918 N.3     1  UNL1       -0.2726
     23 C         143.7389  139.2486  162.9736 C.3     1  UNL1        0.0721
     24 C         144.0293  140.2867  161.9306 C.3     1  UNL1        0.0188
     25 C         145.0207  141.2554  162.5041 C.3     1  UNL1        0.0188
     26 C         145.3430  140.8158  163.9017 C.3     1  UNL1        0.0721
@<TRIPOS>BOND
     1     8     7    1
     2     8     9    1
     3     9    10    1
     4    10    11   ar
     5    11    12   ar
     6    12    13   ar
     7    13    14   ar
     8    14    15   ar
     9    15    16    1
    10    16    17    1
    11    17     1    1
    12     1     2   ar
    13     2     3   ar
    14     3     4   ar
    15     4    18    1
    16    18    19    1
    17    19    20    1
    18    20    21    1
    19    21    22    1
    20    22    23    1
    21    23    24    1
    22    24    25    1
    23    25    26    1
    24     4     5   ar
    25     5     6   ar
    26    17     8    1
    27     6     1   ar
    28    15    10   ar
    29    26    22    1
@<TRIPOS>MOLECULE
*****
 26 29 0 0 0
SMALL
GASTEIGER

@<TRIPOS>ATOM
      1 C         139.5486  141.8047  164.2539 C.ar    1  UNL1        0.0182
      2 C         138.4438  142.8124  164.1358 C.ar    1  UNL1        0.0023
      3 C         137.9546  143.2338  162.7819 C.ar    1  UNL1        0.0367
      4 C         138.5702  142.6474  161.5461 C.ar    1  UNL1        0.1385
      5 C         139.6750  141.6398  161.6642 C.ar    1  UNL1        0.0367
      6 C         140.1642  141.2184  163.0181 C.ar    1  UNL1        0.0023
      7 C         138.1519  139.6008  165.7345 C.3     1  UNL1        0.0162
      8 C         139.3395  140.2814  166.3482 C.3     1  UNL1        0.0963
      9 S         139.8286  139.8601  167.7021 S.3     1  UNL1       -0.1075
     10 C         141.0162  140.5407  168.3158 C.ar    1  UNL1        0.0593
     11 C         141.5053  140.1193  169.6698 C.ar    1  UNL1        0.0092
     12 C         142.6928  140.7999  170.2834 C.ar    1  UNL1        0.0007
     13 C         143.3911  141.9019  169.5431 C.ar    1  UNL1        0.0031
     14 C         142.9020  142.3232  168.1892 C.ar    1  UNL1        0.0374
     15 C         141.7145  141.6426  167.5756 C.ar    1  UNL1        0.1444
     16 O         141.2253  142.0640  166.2216 O.3     1  UNL1       -0.4734
     17 C         140.0378  141.3834  165.6079 C.3     1  UNL1        0.1982
     18 O         138.0810  143.0688  160.1921 O.3     1  UNL1       -0.4754
     19 C         138.5029  142.3059  158.9714 C.3     1  UNL1        0.2068
     20 C         137.6548  142.3411  157.7348 C.3     1  UNL1        0.0646
     21 C         137.2234  141.0600  157.0845 C.3     1  UNL1        0.0759
     22 N         136.0591  141.0539  156.1389 N.3     1  UNL1       -0.2726
     23 C         136.0299  141.6715  154.7721 C.3     1  UNL1        0.0721
     24 C         134.6723  141.4284  154.1825 C.3     1  UNL1        0.0188
     25 C         133.8623  140.6606  155.1847 C.3     1  UNL1        0.0188
     26 C         134.7194  140.4292  156.3939 C.3     1  UNL1        0.0721
@<TRIPOS>BOND
     1     8     7    1
     2     8     9    1
     3     9    10    1
     4    10    11   ar
     5    11    12   ar
     6    12    13   ar
     7    13    14   ar
     8    14    15   ar
     9    15    16    1
    10    16    17    1
    11    17     1    1
    12     1     2   ar
    13     2     3   ar
    14     3     4   ar
    15     4    18    1
    16    18    19    1
    17    19    20    1
    18    20    21    1
    19    21    22    1
    20    22    23    1
    21    23    24    1
    22    24    25    1
    23    25    26    1
    24     4     5   ar
    25     5     6   ar
    26    17     8    1
    27     6     1   ar
    28    15    10   ar
    29    26    22    1
