@<TRIPOS>MOLECULE
*****
 28 30 0 0 0
SMALL
GASTEIGER

@<TRIPOS>ATOM
      1 N         142.2607  139.1897  161.6775 N.3     1  UNL1       -0.2700
      2 C         142.5643  140.5548  161.1348 C.3     1  UNL1        0.0897
      3 C         143.5811  141.4231  161.8146 C.3     1  UNL1        0.0897
      4 N         144.2944  140.9263  163.0371 N.3     1  UNL1       -0.2700
      5 C         143.9908  139.5613  163.5798 C.3     1  UNL1        0.0897
      6 C         142.9740  138.6930  162.9000 C.3     1  UNL1        0.0897
      7 C         141.2439  138.3215  160.9978 C.3     1  UNL1        0.0769
      8 C         139.7891  138.4673  161.3327 C.3     1  UNL1        0.0437
      9 C         138.4761  138.6332  165.6337 C.ar    1  UNL1        0.2900
     10 C         138.3575  139.8509  164.7658 C.ar    1  UNL1        0.0749
     11 C         138.7952  139.7955  163.3322 C.ar    1  UNL1        0.0021
     12 C         139.3514  138.5226  162.7664 C.ar    1  UNL1       -0.0204
     13 C         139.4700  137.3050  163.6343 C.ar    1  UNL1        0.0021
     14 C         139.0323  137.3603  165.0679 C.ar    1  UNL1        0.0749
     15 O         138.7912  139.5366  168.0492 O.2     1  UNL1        0.0415
     16 N         138.0384  138.6885  167.0674 N.pl3   1  UNL1        0.0809
     17 O         136.8479  137.8958  167.5192 O.co2   1  UNL1       -0.5760
     18 C         145.3113  141.7946  163.7169 C.3     1  UNL1        0.0769
     19 C         144.8672  142.8613  164.6735 C.3     1  UNL1        0.0437
     20 C         143.4516  143.3561  164.6407 C.ar    1  UNL1       -0.0204
     21 C         142.3828  142.6222  165.3949 C.ar    1  UNL1        0.0021
     22 C         140.9672  143.1170  165.3621 C.ar    1  UNL1        0.0749
     23 C         140.6203  144.3458  164.5750 C.ar    1  UNL1        0.2900
     24 C         141.6891  145.0799  163.8207 C.ar    1  UNL1        0.0749
     25 C         143.1048  144.5850  163.8535 C.ar    1  UNL1        0.0021
     26 N         139.2047  144.8407  164.5421 N.pl3   1  UNL1        0.0809
     27 O         138.5053  145.1982  165.8201 O.2     1  UNL1        0.0415
     28 O         138.4884  144.9781  163.2314 O.co2   1  UNL1       -0.5760
@<TRIPOS>UNITY_ATOM_ATTR
16 1
charge 1
17 1
charge -1
26 1
charge 1
28 1
charge -1
@<TRIPOS>BOND
     1    15    16    2
     2    16    17    1
     3    16     9    1
     4     9    10   ar
     5    10    11   ar
     6    11    12   ar
     7    12     8    1
     8     8     7    1
     9     7     1    1
    10     1     2    1
    11     2     3    1
    12     3     4    1
    13     4    18    1
    14    18    19    1
    15    19    20    1
    16    20    21   ar
    17    21    22   ar
    18    22    23   ar
    19    23    26    1
    20    26    27    2
    21    26    28    1
    22    23    24   ar
    23    24    25   ar
    24     4     5    1
    25     5     6    1
    26    12    13   ar
    27    13    14   ar
    28    14     9   ar
    29     6     1    1
    30    25    20   ar
@<TRIPOS>MOLECULE
*****
 28 30 0 0 0
SMALL
GASTEIGER

@<TRIPOS>ATOM
      1 N         139.5632  138.2075  162.3818 N.3     1  UNL1       -0.2700
      2 C         140.9625  138.6841  162.1268 C.3     1  UNL1        0.0897
      3 C         141.9507  138.7461  163.2536 C.3     1  UNL1        0.0897
      4 N         141.5396  138.3315  164.6354 N.3     1  UNL1       -0.2700
      5 C         140.1404  137.8550  164.8903 C.3     1  UNL1        0.0897
      6 C         139.1522  137.7930  163.7635 C.3     1  UNL1        0.0897
      7 C         138.5751  138.1455  161.2550 C.3     1  UNL1        0.0769
      8 C         137.5357  139.2172  161.1091 C.3     1  UNL1        0.0437
      9 C         138.4223  143.4123  162.4747 C.ar    1  UNL1        0.2900
     10 C         138.8843  142.9496  161.1247 C.ar    1  UNL1        0.0749
     11 C         138.5888  141.5512  160.6695 C.ar    1  UNL1        0.0021
     12 C         137.8313  140.6156  161.5643 C.ar    1  UNL1       -0.0204
     13 C         137.3693  141.0783  162.9142 C.ar    1  UNL1        0.0021
     14 C         137.6648  142.4766  163.3694 C.ar    1  UNL1        0.0749
     15 O         138.8391  145.1130  164.3940 O.2     1  UNL1        0.0415
     16 N         138.7179  144.8107  162.9299 N.pl3   1  UNL1        0.0809
     17 O         138.8922  145.9068  161.9209 O.co2   1  UNL1       -0.5760
     18 C         142.5278  138.3935  165.7622 C.3     1  UNL1        0.0769
     19 C         143.0829  139.7162  166.2010 C.3     1  UNL1        0.0437
     20 C         142.4303  140.4686  167.3225 C.ar    1  UNL1       -0.0204
     21 C         141.2194  139.9010  168.0018 C.ar    1  UNL1        0.0021
     22 C         140.5668  140.6535  169.1233 C.ar    1  UNL1        0.0749
     23 C         141.1251  141.9735  169.5657 C.ar    1  UNL1        0.2900
     24 C         142.3361  142.5412  168.8864 C.ar    1  UNL1        0.0749
     25 C         142.9887  141.7888  167.7649 C.ar    1  UNL1        0.0021
     26 N         140.4725  142.7259  170.6873 N.pl3   1  UNL1        0.0809
     27 O         140.4417  142.1379  172.0669 O.2     1  UNL1        0.0415
     28 O         139.8507  144.0663  170.4293 O.co2   1  UNL1       -0.5760
@<TRIPOS>UNITY_ATOM_ATTR
16 1
charge 1
17 1
charge -1
26 1
charge 1
28 1
charge -1
@<TRIPOS>BOND
     1    15    16    2
     2    16    17    1
     3    16     9    1
     4     9    10   ar
     5    10    11   ar
     6    11    12   ar
     7    12     8    1
     8     8     7    1
     9     7     1    1
    10     1     2    1
    11     2     3    1
    12     3     4    1
    13     4    18    1
    14    18    19    1
    15    19    20    1
    16    20    21   ar
    17    21    22   ar
    18    22    23   ar
    19    23    26    1
    20    26    27    2
    21    26    28    1
    22    23    24   ar
    23    24    25   ar
    24     4     5    1
    25     5     6    1
    26    12    13   ar
    27    13    14   ar
    28    14     9   ar
    29     6     1    1
    30    25    20   ar
@<TRIPOS>MOLECULE
*****
 28 30 0 0 0
SMALL
GASTEIGER

@<TRIPOS>ATOM
      1 N         144.4135  140.6892  163.0438 N.3     1  UNL1       -0.2700
      2 C         143.9393  139.4284  163.7038 C.3     1  UNL1        0.0897
      3 C         142.8759  138.5950  163.0521 C.3     1  UNL1        0.0897
      4 N         142.2867  139.0225  161.7405 N.3     1  UNL1       -0.2700
      5 C         142.7609  140.2832  161.0806 C.3     1  UNL1        0.0897
      6 C         143.8243  141.1166  161.7323 C.3     1  UNL1        0.0897
      7 C         145.4769  141.5226  163.6954 C.3     1  UNL1        0.0769
      8 C         145.0935  142.7026  164.5384 C.3     1  UNL1        0.0437
      9 C         140.8785  144.2743  164.4250 C.ar    1  UNL1        0.2900
     10 C         141.2038  143.0582  165.2406 C.ar    1  UNL1        0.0749
     11 C         142.6088  142.5343  165.2784 C.ar    1  UNL1        0.0021
     12 C         143.6885  143.2265  164.5006 C.ar    1  UNL1       -0.0204
     13 C         143.3632  144.4426  163.6850 C.ar    1  UNL1        0.0021
     14 C         141.9582  144.9665  163.6472 C.ar    1  UNL1        0.0749
     15 O         138.7188  145.0139  165.6654 O.2     1  UNL1        0.0415
     16 N         139.4735  144.7983  164.3872 N.pl3   1  UNL1        0.0809
     17 O         138.8231  145.1066  163.0712 O.co2   1  UNL1       -0.5760
     18 C         141.2233  138.1891  161.0889 C.3     1  UNL1        0.0769
     19 C         139.7790  138.4241  161.4189 C.3     1  UNL1        0.0437
     20 C         139.3387  138.4940  162.8511 C.ar    1  UNL1       -0.0204
     21 C         139.3239  137.2525  163.6927 C.ar    1  UNL1        0.0021
     22 C         138.8836  137.3224  165.1249 C.ar    1  UNL1        0.0749
     23 C         138.4581  138.6339  165.7155 C.ar    1  UNL1        0.2900
     24 C         138.4729  139.8756  164.8740 C.ar    1  UNL1        0.0749
     25 C         138.9132  139.8056  163.4417 C.ar    1  UNL1        0.0021
     26 N         138.0178  138.7039  167.1478 N.pl3   1  UNL1        0.0809
     27 O         138.7620  139.5709  168.1197 O.2     1  UNL1        0.0415
     28 O         136.8334  137.9069  167.6081 O.co2   1  UNL1       -0.5760
@<TRIPOS>UNITY_ATOM_ATTR
16 1
charge 1
17 1
charge -1
26 1
charge 1
28 1
charge -1
@<TRIPOS>BOND
     1    15    16    2
     2    16    17    1
     3    16     9    1
     4     9    10   ar
     5    10    11   ar
     6    11    12   ar
     7    12     8    1
     8     8     7    1
     9     7     1    1
    10     1     2    1
    11     2     3    1
    12     3     4    1
    13     4    18    1
    14    18    19    1
    15    19    20    1
    16    20    21   ar
    17    21    22   ar
    18    22    23   ar
    19    23    26    1
    20    26    27    2
    21    26    28    1
    22    23    24   ar
    23    24    25   ar
    24     4     5    1
    25     5     6    1
    26    12    13   ar
    27    13    14   ar
    28    14     9   ar
    29     6     1    1
    30    25    20   ar
@<TRIPOS>MOLECULE
*****
 28 30 0 0 0
SMALL
GASTEIGER

@<TRIPOS>ATOM
      1 N         138.7464  140.0082  161.5692 N.3     1  UNL1       -0.2700
      2 C         139.1363  141.2592  160.8390 C.3     1  UNL1        0.0897
      3 C         138.7812  142.6010  161.4076 C.3     1  UNL1        0.0897
      4 N         138.0362  142.6919  162.7063 N.3     1  UNL1       -0.2700
      5 C         137.6463  141.4410  163.4365 C.3     1  UNL1        0.0897
      6 C         138.0014  140.0991  162.8679 C.3     1  UNL1        0.0897
      7 C         139.1015  138.6663  161.0006 C.3     1  UNL1        0.0769
      8 C         140.4866  138.1188  161.1791 C.3     1  UNL1        0.0437
      9 C         142.5490  138.4706  165.1631 C.ar    1  UNL1        0.2900
     10 C         141.6123  137.3286  164.9017 C.ar    1  UNL1        0.0749
     11 C         140.9248  137.2113  163.5737 C.ar    1  UNL1        0.0021
     12 C         141.1740  138.2361  162.5071 C.ar    1  UNL1       -0.0204
     13 C         142.1107  139.3781  162.7685 C.ar    1  UNL1        0.0021
     14 C         142.7981  139.4954  164.0965 C.ar    1  UNL1        0.0749
     15 O         142.8333  139.6671  167.4517 O.2     1  UNL1        0.0415
     16 N         143.2364  138.5879  166.4912 N.pl3   1  UNL1        0.0809
     17 O         144.3271  137.6259  166.8586 O.co2   1  UNL1       -0.5760
     18 C         137.6811  144.0338  163.2749 C.3     1  UNL1        0.0769
     19 C         138.4743  144.5986  164.4160 C.3     1  UNL1        0.0437
     20 C         139.9400  144.3011  164.5303 C.ar    1  UNL1       -0.0204
     21 C         140.9302  145.0889  163.7248 C.ar    1  UNL1        0.0021
     22 C         142.3960  144.7914  163.8390 C.ar    1  UNL1        0.0749
     23 C         142.8715  143.7062  164.7588 C.ar    1  UNL1        0.2900
     24 C         141.8813  142.9184  165.5644 C.ar    1  UNL1        0.0749
     25 C         140.4156  143.2158  165.4501 C.ar    1  UNL1        0.0021
     26 N         144.3373  143.4087  164.8731 N.pl3   1  UNL1        0.0809
     27 O         144.9806  142.4349  163.9308 O.2     1  UNL1        0.0415
     28 O         145.1597  144.0851  165.9295 O.co2   1  UNL1       -0.5760
@<TRIPOS>UNITY_ATOM_ATTR
16 1
charge 1
17 1
charge -1
26 1
charge 1
28 1
charge -1
@<TRIPOS>BOND
     1    15    16    2
     2    16    17    1
     3    16     9    1
     4     9    10   ar
     5    10    11   ar
     6    11    12   ar
     7    12     8    1
     8     8     7    1
     9     7     1    1
    10     1     2    1
    11     2     3    1
    12     3     4    1
    13     4    18    1
    14    18    19    1
    15    19    20    1
    16    20    21   ar
    17    21    22   ar
    18    22    23   ar
    19    23    26    1
    20    26    27    2
    21    26    28    1
    22    23    24   ar
    23    24    25   ar
    24     4     5    1
    25     5     6    1
    26    12    13   ar
    27    13    14   ar
    28    14     9   ar
    29     6     1    1
    30    25    20   ar
@<TRIPOS>MOLECULE
*****
 28 30 0 0 0
SMALL
GASTEIGER

@<TRIPOS>ATOM
      1 N         141.4727  138.3782  164.6723 N.3     1  UNL1       -0.2700
      2 C         141.8622  138.5402  163.2328 C.3     1  UNL1        0.0897
      3 C         140.8191  138.4487  162.1587 C.3     1  UNL1        0.0897
      4 N         139.3865  138.1953  162.5241 N.3     1  UNL1       -0.2700
      5 C         138.9970  138.0333  163.9636 C.3     1  UNL1        0.0897
      6 C         140.0401  138.1247  165.0376 C.3     1  UNL1        0.0897
      7 C         142.5157  138.4697  165.7464 C.3     1  UNL1        0.0769
      8 C         143.0353  139.8099  166.1751 C.3     1  UNL1        0.0437
      9 C         141.0939  141.9841  169.6034 C.ar    1  UNL1        0.2900
     10 C         140.6151  140.6167  169.2151 C.ar    1  UNL1        0.0749
     11 C         141.2623  139.8919  168.0723 C.ar    1  UNL1        0.0021
     12 C         142.3881  140.5346  167.3179 C.ar    1  UNL1       -0.0204
     13 C         142.8669  141.9021  167.7062 C.ar    1  UNL1        0.0021
     14 C         142.2197  142.6268  168.8490 C.ar    1  UNL1        0.0749
     15 O         139.7841  144.0345  170.5147 O.2     1  UNL1        0.0415
     16 N         140.4467  142.7088  170.7462 N.pl3   1  UNL1        0.0809
     17 O         140.4622  142.1080  172.1205 O.co2   1  UNL1       -0.5760
     18 C         138.3434  138.1038  161.4501 C.3     1  UNL1        0.0769
     19 C         137.4619  139.2819  161.1584 C.3     1  UNL1        0.0437
     20 C         137.8866  140.6583  161.5771 C.ar    1  UNL1       -0.0204
     21 C         138.8491  141.4365  160.7297 C.ar    1  UNL1        0.0021
     22 C         139.2738  142.8128  161.1484 C.ar    1  UNL1        0.0749
     23 C         138.7361  143.4109  162.4145 C.ar    1  UNL1        0.2900
     24 C         137.7736  142.6327  163.2620 C.ar    1  UNL1        0.0749
     25 C         137.3489  141.2564  162.8433 C.ar    1  UNL1        0.0021
     26 N         139.1608  144.7873  162.8332 N.pl3   1  UNL1        0.0809
     27 O         139.8341  144.9940  164.1576 O.2     1  UNL1        0.0415
     28 O         138.9122  145.9569  161.9276 O.co2   1  UNL1       -0.5760
@<TRIPOS>UNITY_ATOM_ATTR
16 1
charge 1
17 1
charge -1
26 1
charge 1
28 1
charge -1
@<TRIPOS>BOND
     1    15    16    2
     2    16    17    1
     3    16     9    1
     4     9    10   ar
     5    10    11   ar
     6    11    12   ar
     7    12     8    1
     8     8     7    1
     9     7     1    1
    10     1     2    1
    11     2     3    1
    12     3     4    1
    13     4    18    1
    14    18    19    1
    15    19    20    1
    16    20    21   ar
    17    21    22   ar
    18    22    23   ar
    19    23    26    1
    20    26    27    2
    21    26    28    1
    22    23    24   ar
    23    24    25   ar
    24     4     5    1
    25     5     6    1
    26    12    13   ar
    27    13    14   ar
    28    14     9   ar
    29     6     1    1
    30    25    20   ar
@<TRIPOS>MOLECULE
*****
 28 30 0 0 0
SMALL
GASTEIGER

@<TRIPOS>ATOM
      1 N         139.8816  138.0429  164.4437 N.3     1  UNL1       -0.2700
      2 C         139.7453  137.9019  162.9565 C.3     1  UNL1        0.0897
      3 C         140.9681  137.9042  162.0877 C.3     1  UNL1        0.0897
      4 N         142.3272  138.0475  162.7062 N.3     1  UNL1       -0.2700
      5 C         142.4635  138.1885  164.1933 C.3     1  UNL1        0.0897
      6 C         141.2406  138.1862  165.0620 C.3     1  UNL1        0.0897
      7 C         138.6588  138.0406  165.3124 C.3     1  UNL1        0.0769
      8 C         138.1543  139.3249  165.9007 C.3     1  UNL1        0.0437
      9 C         139.0482  143.2368  163.8641 C.ar    1  UNL1        0.2900
     10 C         139.8232  142.8313  165.0826 C.ar    1  UNL1        0.0749
     11 C         139.5252  141.5274  165.7615 C.ar    1  UNL1        0.0021
     12 C         138.4522  140.6289  165.2218 C.ar    1  UNL1       -0.0204
     13 C         137.6772  141.0343  164.0033 C.ar    1  UNL1        0.0021
     14 C         137.9752  142.3383  163.3244 C.ar    1  UNL1        0.0749
     15 O         138.3427  145.1450  162.2482 O.2     1  UNL1        0.0415
     16 N         139.3462  144.5408  163.1852 N.pl3   1  UNL1        0.0809
     17 O         140.6475  145.2406  163.4434 O.co2   1  UNL1       -0.5760
     18 C         143.5500  138.0498  161.8374 C.3     1  UNL1        0.0769
     19 C         144.0789  139.3425  161.2902 C.3     1  UNL1        0.0437
     20 C         144.1518  140.5553  162.1700 C.ar    1  UNL1       -0.0204
     21 C         145.3103  140.7345  163.1057 C.ar    1  UNL1        0.0021
     22 C         145.3833  141.9472  163.9854 C.ar    1  UNL1        0.0749
     23 C         144.2977  142.9808  163.9294 C.ar    1  UNL1        0.2900
     24 C         143.1391  142.8017  162.9936 C.ar    1  UNL1        0.0749
     25 C         143.0662  141.5889  162.1139 C.ar    1  UNL1        0.0021
     26 N         144.3707  144.1936  164.8091 N.pl3   1  UNL1        0.0809
     27 O         145.0480  144.1114  166.1450 O.2     1  UNL1        0.0415
     28 O         143.7664  145.4885  164.3529 O.co2   1  UNL1       -0.5760
@<TRIPOS>UNITY_ATOM_ATTR
16 1
charge 1
17 1
charge -1
26 1
charge 1
28 1
charge -1
@<TRIPOS>BOND
     1    15    16    2
     2    16    17    1
     3    16     9    1
     4     9    10   ar
     5    10    11   ar
     6    11    12   ar
     7    12     8    1
     8     8     7    1
     9     7     1    1
    10     1     2    1
    11     2     3    1
    12     3     4    1
    13     4    18    1
    14    18    19    1
    15    19    20    1
    16    20    21   ar
    17    21    22   ar
    18    22    23   ar
    19    23    26    1
    20    26    27    2
    21    26    28    1
    22    23    24   ar
    23    24    25   ar
    24     4     5    1
    25     5     6    1
    26    12    13   ar
    27    13    14   ar
    28    14     9   ar
    29     6     1    1
    30    25    20   ar
@<TRIPOS>MOLECULE
*****
 28 30 0 0 0
SMALL
GASTEIGER

@<TRIPOS>ATOM
      1 N         137.8681  142.9317  162.8570 N.3     1  UNL1       -0.2700
      2 C         138.1603  142.6455  161.4137 C.3     1  UNL1        0.0897
      3 C         138.2031  141.2284  160.9239 C.3     1  UNL1        0.0897
      4 N         137.9537  140.0975  161.8773 N.3     1  UNL1       -0.2700
      5 C         137.6615  140.3837  163.3204 C.3     1  UNL1        0.0897
      6 C         137.6187  141.8008  163.8102 C.3     1  UNL1        0.0897
      7 C         137.8253  144.3488  163.3468 C.3     1  UNL1        0.0769
      8 C         138.6631  144.7624  164.5202 C.3     1  UNL1        0.0437
      9 C         143.0323  143.6935  164.6536 C.ar    1  UNL1        0.2900
     10 C         142.5605  144.8126  163.7733 C.ar    1  UNL1        0.0749
     11 C         141.1041  145.1689  163.7288 C.ar    1  UNL1        0.0021
     12 C         140.1195  144.4061  164.5647 C.ar    1  UNL1       -0.0204
     13 C         140.5913  143.2870  165.4450 C.ar    1  UNL1        0.0021
     14 C         142.0477  142.9307  165.4894 C.ar    1  UNL1        0.0749
     15 O         145.3463  143.8261  165.8273 O.2     1  UNL1        0.0415
     16 N         144.4887  143.3372  164.6980 N.pl3   1  UNL1        0.0809
     17 O         145.0875  142.4919  163.6131 O.co2   1  UNL1       -0.5760
     18 C         137.9965  138.6803  161.3874 C.3     1  UNL1        0.0769
     19 C         139.3165  138.0065  161.1555 C.3     1  UNL1        0.0437
     20 C         140.4371  138.1952  162.1346 C.ar    1  UNL1       -0.0204
     21 C         140.4932  137.3615  163.3802 C.ar    1  UNL1        0.0021
     22 C         141.6139  137.5502  164.3592 C.ar    1  UNL1        0.0749
     23 C         142.6784  138.5727  164.0926 C.ar    1  UNL1        0.2900
     24 C         142.6224  139.4066  162.8470 C.ar    1  UNL1        0.0749
     25 C         141.5017  139.2178  161.8679 C.ar    1  UNL1        0.0021
     26 N         143.7991  138.7615  165.0717 N.pl3   1  UNL1        0.0809
     27 O         145.1206  139.2962  164.6050 O.2     1  UNL1        0.0415
     28 O         143.5982  138.4155  166.5173 O.co2   1  UNL1       -0.5760
@<TRIPOS>UNITY_ATOM_ATTR
16 1
charge 1
17 1
charge -1
26 1
charge 1
28 1
charge -1
@<TRIPOS>BOND
     1    15    16    2
     2    16    17    1
     3    16     9    1
     4     9    10   ar
     5    10    11   ar
     6    11    12   ar
     7    12     8    1
     8     8     7    1
     9     7     1    1
    10     1     2    1
    11     2     3    1
    12     3     4    1
    13     4    18    1
    14    18    19    1
    15    19    20    1
    16    20    21   ar
    17    21    22   ar
    18    22    23   ar
    19    23    26    1
    20    26    27    2
    21    26    28    1
    22    23    24   ar
    23    24    25   ar
    24     4     5    1
    25     5     6    1
    26    12    13   ar
    27    13    14   ar
    28    14     9   ar
    29     6     1    1
    30    25    20   ar
@<TRIPOS>MOLECULE
*****
 28 30 0 0 0
SMALL
GASTEIGER

@<TRIPOS>ATOM
      1 N         138.4582  141.1479  163.7860 N.3     1  UNL1       -0.2700
      2 C         137.9856  142.5655  163.9170 C.3     1  UNL1        0.0897
      3 C         138.3440  143.5755  162.8675 C.3     1  UNL1        0.0897
      4 N         139.1750  143.1679  161.6871 N.3     1  UNL1       -0.2700
      5 C         139.6475  141.7504  161.5561 C.3     1  UNL1        0.0897
      6 C         139.2891  140.7403  162.6055 C.3     1  UNL1        0.0897
      7 C         138.0997  140.1378  164.8354 C.3     1  UNL1        0.0769
      8 C         139.1532  139.6209  165.7697 C.3     1  UNL1        0.0437
      9 C         140.2930  142.0017  169.4142 C.ar    1  UNL1        0.2900
     10 C         139.6165  140.6719  169.5685 C.ar    1  UNL1        0.0749
     11 C         139.2365  139.8783  168.3536 C.ar    1  UNL1        0.0021
     12 C         139.5331  140.4145  166.9845 C.ar    1  UNL1       -0.0204
     13 C         140.2097  141.7443  166.8303 C.ar    1  UNL1        0.0021
     14 C         140.5896  142.5379  168.0451 C.ar    1  UNL1        0.0749
     15 O         141.3294  144.1351  170.4746 O.2     1  UNL1        0.0415
     16 N         140.6729  142.7953  170.6291 N.pl3   1  UNL1        0.0809
     17 O         140.3964  142.2491  171.9984 O.co2   1  UNL1       -0.5760
     18 C         139.5334  144.1780  160.6376 C.3     1  UNL1        0.0769
     19 C         140.8292  144.9280  160.7301 C.3     1  UNL1        0.0437
     20 C         141.8644  144.5158  161.7343 C.ar    1  UNL1       -0.0204
     21 C         141.8371  145.0917  163.1190 C.ar    1  UNL1        0.0021
     22 C         142.8723  144.6795  164.1233 C.ar    1  UNL1        0.0749
     23 C         143.9347  143.6914  163.7428 C.ar    1  UNL1        0.2900
     24 C         143.9620  143.1154  162.3580 C.ar    1  UNL1        0.0749
     25 C         142.9268  143.5276  161.3538 C.ar    1  UNL1        0.0021
     26 N         144.9699  143.2791  164.7471 N.pl3   1  UNL1        0.0809
     27 O         145.2061  144.1179  165.9681 O.2     1  UNL1        0.0415
     28 O         145.7688  142.0283  164.5304 O.co2   1  UNL1       -0.5760
@<TRIPOS>UNITY_ATOM_ATTR
16 1
charge 1
17 1
charge -1
26 1
charge 1
28 1
charge -1
@<TRIPOS>BOND
     1    15    16    2
     2    16    17    1
     3    16     9    1
     4     9    10   ar
     5    10    11   ar
     6    11    12   ar
     7    12     8    1
     8     8     7    1
     9     7     1    1
    10     1     2    1
    11     2     3    1
    12     3     4    1
    13     4    18    1
    14    18    19    1
    15    19    20    1
    16    20    21   ar
    17    21    22   ar
    18    22    23   ar
    19    23    26    1
    20    26    27    2
    21    26    28    1
    22    23    24   ar
    23    24    25   ar
    24     4     5    1
    25     5     6    1
    26    12    13   ar
    27    13    14   ar
    28    14     9   ar
    29     6     1    1
    30    25    20   ar
@<TRIPOS>MOLECULE
*****
 28 30 0 0 0
SMALL
GASTEIGER

@<TRIPOS>ATOM
      1 N         141.7098  138.1208  164.4877 N.3     1  UNL1       -0.2700
      2 C         142.3597  138.2540  163.1423 C.3     1  UNL1        0.0897
      3 C         143.5315  139.1731  162.9632 C.3     1  UNL1        0.0897
      4 N         144.0534  139.9591  164.1294 N.3     1  UNL1       -0.2700
      5 C         143.4034  139.8258  165.4747 C.3     1  UNL1        0.0897
      6 C         142.2317  138.9067  165.6538 C.3     1  UNL1        0.0897
      7 C         140.5380  137.2016  164.6668 C.3     1  UNL1        0.0769
      8 C         139.1545  137.7666  164.7959 C.3     1  UNL1        0.0437
      9 C         138.1811  141.7702  162.9866 C.ar    1  UNL1        0.2900
     10 C         138.4481  141.6572  164.4583 C.ar    1  UNL1        0.0749
     11 C         138.7726  140.3227  165.0614 C.ar    1  UNL1        0.0021
     12 C         138.8300  139.1011  164.1928 C.ar    1  UNL1       -0.0204
     13 C         138.5631  139.2141  162.7211 C.ar    1  UNL1        0.0021
     14 C         138.2386  140.5486  162.1180 C.ar    1  UNL1        0.0749
     15 O         137.9600  143.3025  160.9002 O.2     1  UNL1        0.0415
     16 N         137.8567  143.1047  162.3835 N.pl3   1  UNL1        0.0809
     17 O         137.4288  144.2415  163.2637 O.co2   1  UNL1       -0.5760
     18 C         145.2251  140.8782  163.9503 C.3     1  UNL1        0.0769
     19 C         145.0678  142.3501  164.1931 C.3     1  UNL1        0.0437
     20 C         144.0033  143.1200  163.4693 C.ar    1  UNL1       -0.0204
     21 C         143.7268  142.8385  162.0221 C.ar    1  UNL1        0.0021
     22 C         142.6623  143.6085  161.2983 C.ar    1  UNL1        0.0749
     23 C         141.8742  144.6600  162.0216 C.ar    1  UNL1        0.2900
     24 C         142.1506  144.9415  163.4689 C.ar    1  UNL1        0.0749
     25 C         143.2151  144.1716  164.1927 C.ar    1  UNL1        0.0021
     26 N         140.8097  145.4299  161.2978 N.pl3   1  UNL1        0.0809
     27 O         139.8356  146.2699  162.0697 O.2     1  UNL1        0.0415
     28 O         140.7192  145.3599  159.8022 O.co2   1  UNL1       -0.5760
@<TRIPOS>UNITY_ATOM_ATTR
16 1
charge 1
17 1
charge -1
26 1
charge 1
28 1
charge -1
@<TRIPOS>BOND
     1    15    16    2
     2    16    17    1
     3    16     9    1
     4     9    10   ar
     5    10    11   ar
     6    11    12   ar
     7    12     8    1
     8     8     7    1
     9     7     1    1
    10     1     2    1
    11     2     3    1
    12     3     4    1
    13     4    18    1
    14    18    19    1
    15    19    20    1
    16    20    21   ar
    17    21    22   ar
    18    22    23   ar
    19    23    26    1
    20    26    27    2
    21    26    28    1
    22    23    24   ar
    23    24    25   ar
    24     4     5    1
    25     5     6    1
    26    12    13   ar
    27    13    14   ar
    28    14     9   ar
    29     6     1    1
    30    25    20   ar
