@<TRIPOS>MOLECULE
*****
 36 39 0 0 0
SMALL
GASTEIGER

@<TRIPOS>ATOM
      1 N         141.1716  142.3087  164.2371 N.am    1  UNL1       -0.3012
      2 C         140.3359  143.5367  164.4459 C.2     1  UNL1        0.2352
      3 O         139.7532  143.8264  165.7974 O.2     1  UNL1       -0.2737
      4 H         141.5540  142.1185  163.3500 H       1  UNL1        0.1497
      5 C         140.0828  144.4748  163.3032 C.3     1  UNL1        0.1166
      6 N         139.4487  145.2487  164.4207 N.3     1  UNL1       -0.3162
      7 C         140.8048  143.3751  162.5825 C.3     1  UNL1        0.0739
      8 C         141.0535  143.4822  161.1072 C.3     1  UNL1        0.2039
      9 N         140.5803  144.6892  160.3525 N.pl3   1  UNL1       -0.1931
     10 C         139.8583  145.7888  161.0732 C.3     1  UNL1        0.2039
     11 C         139.6095  145.6816  162.5485 C.3     1  UNL1        0.0739
     12 H         139.5414  144.7259  165.2917 H       1  UNL1        0.1192
     13 H         138.4603  145.3945  164.2152 H       1  UNL1        0.1192
     14 C         140.8290  144.7963  158.8771 C.2     1  UNL1        0.3205
     15 N         141.9056  145.7049  158.3621 N.2     1  UNL1        0.0097
     16 C         142.1544  145.8121  156.8869 C.2     1  UNL1        0.4717
     17 N         141.3265  145.0106  155.9264 N.2     1  UNL1        0.0158
     18 C         140.2499  144.1019  156.4415 C.2     1  UNL1        0.3714
     19 N         139.2811  143.1960  155.7410 N.2     1  UNL1       -0.0339
     20 C         138.4335  142.5290  156.7834 C.2     1  UNL1        0.2323
     21 C         138.8785  143.0227  158.1282 C.2     1  UNL1        0.0486
     22 C         140.0011  143.9948  157.9168 C.3     1  UNL1        0.2428
     23 C         141.4248  141.3705  165.3798 C.3     1  UNL1        0.0941
     24 C         140.3292  140.4692  165.8669 C.ar    1  UNL1       -0.0045
     25 C         139.9269  140.4910  167.3119 C.ar    1  UNL1       -0.0018
     26 C         138.8313  139.5896  167.7990 C.ar    1  UNL1        0.0111
     27 C         138.1381  138.6665  166.8412 C.ar    1  UNL1        0.0577
     28 CL        137.0425  137.7651  167.3285 Cl      1  UNL1       -0.0822
     29 C         138.5404  138.6447  165.3964 C.ar    1  UNL1        0.0111
     30 C         139.6360  139.5460  164.9092 C.ar    1  UNL1       -0.0018
     31 C         142.7735  141.3337  166.0353 C.3     1  UNL1        0.0256
     32 C         143.6008  142.5821  166.1194 C.3     1  UNL1        0.0194
     33 C         144.6337  142.8694  165.0703 C.3     1  UNL1        0.0722
     34 C         144.5135  143.1612  162.4915 C.3     1  UNL1        0.0897
     35 N         144.2753  143.6974  163.8720 N.3     1  UNL1       -0.2703
     36 C         143.6789  145.0616  164.0541 C.3     1  UNL1        0.0897
@<TRIPOS>BOND
     1    34    35    1
     2    35    36    1
     3    35    33    1
     4    33    32    1
     5    32    31    1
     6    31    23    1
     7    23     1    1
     8     1     2   am
     9     2     3    2
    10     2     5    1
    11     5     6    1
    12     5     7    1
    13     7     8    1
    14     8     9    1
    15     9    14    1
    16    14    15    2
    17    15    16    1
    18    16    17    2
    19    17    18    1
    20    18    19    2
    21    19    20    1
    22    20    21    2
    23    21    22    1
    24     9    10    1
    25    10    11    1
    26    23    24    1
    27    24    25   ar
    28    25    26   ar
    29    26    27   ar
    30    27    28    1
    31    27    29   ar
    32    29    30   ar
    33    11     5    1
    34    30    24   ar
    35    22    14    1
    36    22    18    1
    37     1     4    1
    38     6    12    1
    39     6    13    1
@<TRIPOS>MOLECULE
*****
 36 39 0 0 0
SMALL
GASTEIGER

@<TRIPOS>ATOM
      1 N         141.0510  140.3095  164.3980 N.am    1  UNL1       -0.3012
      2 C         139.6341  140.7257  164.6614 C.2     1  UNL1        0.2352
      3 O         138.9983  140.4258  165.9865 O.2     1  UNL1       -0.2737
      4 H         141.4682  140.5064  163.5283 H       1  UNL1        0.1497
      5 C         138.8531  141.4418  163.5997 C.3     1  UNL1        0.1166
      6 N         137.7431  141.0844  164.5430 N.3     1  UNL1       -0.3162
      7 C         140.2345  141.5506  163.0250 C.3     1  UNL1        0.0739
      8 C         140.4494  142.2512  161.7164 C.3     1  UNL1        0.2039
      9 N         139.2829  142.8432  160.9822 N.pl3   1  UNL1       -0.1931
     10 C         137.9016  142.7345  161.5568 C.3     1  UNL1        0.2039
     11 C         137.6867  142.0338  162.8655 C.3     1  UNL1        0.0739
     12 H         138.1253  140.5776  165.3414 H       1  UNL1        0.1192
     13 H         137.0633  140.4964  164.0608 H       1  UNL1        0.1192
     14 C         139.4978  143.5440  159.6734 C.2     1  UNL1        0.3205
     15 N         140.0503  144.9383  159.6511 N.2     1  UNL1        0.0097
     16 C         140.2652  145.6390  158.3424 C.2     1  UNL1        0.4717
     17 N         139.9276  144.9454  157.0559 N.2     1  UNL1        0.0158
     18 C         139.3750  143.5510  157.0782 C.2     1  UNL1        0.3714
     19 N         138.9527  142.6211  155.9797 N.2     1  UNL1       -0.0339
     20 C         138.4767  141.3457  156.6095 C.2     1  UNL1        0.2323
     21 C         138.6049  141.4873  158.0973 C.2     1  UNL1        0.0486
     22 C         139.1601  142.8503  158.3870 C.3     1  UNL1        0.2428
     23 C         141.8320  139.5934  165.4597 C.3     1  UNL1        0.0941
     24 C         142.3219  140.3419  166.6638 C.ar    1  UNL1       -0.0045
     25 C         142.8297  141.7458  166.5188 C.ar    1  UNL1       -0.0018
     26 C         143.3195  142.4943  167.7229 C.ar    1  UNL1        0.0111
     27 C         143.3015  141.8387  169.0720 C.ar    1  UNL1        0.0577
     28 CL        143.7914  142.5873  170.2761 Cl      1  UNL1       -0.0822
     29 C         142.7937  140.4348  169.2170 C.ar    1  UNL1        0.0111
     30 C         142.3039  139.6863  168.0129 C.ar    1  UNL1       -0.0018
     31 C         142.1232  138.1288  165.3172 C.3     1  UNL1        0.0256
     32 C         141.1313  137.2293  164.6412 C.3     1  UNL1        0.0194
     33 C         141.1376  137.0944  163.1473 C.3     1  UNL1        0.0722
     34 C         138.6643  137.8003  162.7809 C.3     1  UNL1        0.0897
     35 N         140.0939  137.7926  162.3269 N.3     1  UNL1       -0.2703
     36 C         140.4797  138.4831  161.0524 C.3     1  UNL1        0.0897
@<TRIPOS>BOND
     1    34    35    1
     2    35    36    1
     3    35    33    1
     4    33    32    1
     5    32    31    1
     6    31    23    1
     7    23     1    1
     8     1     2   am
     9     2     3    2
    10     2     5    1
    11     5     6    1
    12     5     7    1
    13     7     8    1
    14     8     9    1
    15     9    14    1
    16    14    15    2
    17    15    16    1
    18    16    17    2
    19    17    18    1
    20    18    19    2
    21    19    20    1
    22    20    21    2
    23    21    22    1
    24     9    10    1
    25    10    11    1
    26    23    24    1
    27    24    25   ar
    28    25    26   ar
    29    26    27   ar
    30    27    28    1
    31    27    29   ar
    32    29    30   ar
    33    11     5    1
    34    30    24   ar
    35    22    14    1
    36    22    18    1
    37     1     4    1
    38     6    12    1
    39     6    13    1
@<TRIPOS>MOLECULE
*****
 36 39 0 0 0
SMALL
GASTEIGER

@<TRIPOS>ATOM
      1 N         141.1514  142.2293  164.4341 N.am    1  UNL1       -0.3012
      2 C         140.3242  143.4640  164.6379 C.2     1  UNL1        0.2352
      3 O         139.7220  143.7500  165.9815 O.2     1  UNL1       -0.2737
      4 H         141.5467  142.0416  163.5522 H       1  UNL1        0.1497
      5 C         140.0994  144.4125  163.4978 C.3     1  UNL1        0.1166
      6 N         139.4727  145.1940  164.6142 N.3     1  UNL1       -0.3162
      7 C         140.8042  143.3016  162.7772 C.3     1  UNL1        0.0739
      8 C         141.0664  143.4105  161.3045 C.3     1  UNL1        0.2039
      9 N         140.6239  144.6305  160.5521 N.pl3   1  UNL1       -0.1931
     10 C         139.9191  145.7414  161.2726 C.3     1  UNL1        0.2039
     11 C         139.6569  145.6324  162.7455 C.3     1  UNL1        0.0739
     12 H         139.5479  144.6653  165.4833 H       1  UNL1        0.1192
     13 H         138.4891  145.3611  164.4019 H       1  UNL1        0.1192
     14 C         140.8862  144.7395  159.0792 C.2     1  UNL1        0.3205
     15 N         141.9686  145.6475  158.5753 N.2     1  UNL1        0.0097
     16 C         142.2309  145.7565  157.1025 C.2     1  UNL1        0.4717
     17 N         141.4108  144.9574  156.1335 N.2     1  UNL1        0.0158
     18 C         140.3285  144.0493  156.6373 C.2     1  UNL1        0.3714
     19 N         139.3650  143.1456  155.9268 N.2     1  UNL1       -0.0339
     20 C         138.5072  142.4781  156.9605 C.2     1  UNL1        0.2323
     21 C         138.9405  142.9693  158.3099 C.2     1  UNL1        0.0486
     22 C         140.0662  143.9404  158.1102 C.3     1  UNL1        0.2428
     23 C         141.3764  141.2807  165.5741 C.3     1  UNL1        0.0941
     24 C         140.2790  140.3540  166.0063 C.ar    1  UNL1       -0.0045
     25 C         139.7245  140.4452  167.3972 C.ar    1  UNL1       -0.0018
     26 C         138.6272  139.5185  167.8294 C.ar    1  UNL1        0.0111
     27 C         138.0842  138.5005  166.8708 C.ar    1  UNL1        0.0577
     28 CL        136.9867  137.5737  167.3030 Cl      1  UNL1       -0.0822
     29 C         138.6386  138.4092  165.4800 C.ar    1  UNL1        0.0111
     30 C         139.7360  139.3360  165.0477 C.ar    1  UNL1       -0.0018
     31 C         142.6987  141.2589  166.2819 C.3     1  UNL1        0.0256
     32 C         142.9608  142.2110  167.4111 C.3     1  UNL1        0.0194
     33 C         143.0027  141.7064  168.8231 C.3     1  UNL1        0.0722
     34 C         141.0184  143.2376  169.5072 C.3     1  UNL1        0.0897
     35 N         141.8969  142.0519  169.7759 N.3     1  UNL1       -0.2703
     36 C         141.6697  141.2117  170.9975 C.3     1  UNL1        0.0897
@<TRIPOS>BOND
     1    34    35    1
     2    35    36    1
     3    35    33    1
     4    33    32    1
     5    32    31    1
     6    31    23    1
     7    23     1    1
     8     1     2   am
     9     2     3    2
    10     2     5    1
    11     5     6    1
    12     5     7    1
    13     7     8    1
    14     8     9    1
    15     9    14    1
    16    14    15    2
    17    15    16    1
    18    16    17    2
    19    17    18    1
    20    18    19    2
    21    19    20    1
    22    20    21    2
    23    21    22    1
    24     9    10    1
    25    10    11    1
    26    23    24    1
    27    24    25   ar
    28    25    26   ar
    29    26    27   ar
    30    27    28    1
    31    27    29   ar
    32    29    30   ar
    33    11     5    1
    34    30    24   ar
    35    22    14    1
    36    22    18    1
    37     1     4    1
    38     6    12    1
    39     6    13    1
@<TRIPOS>MOLECULE
*****
 36 39 0 0 0
SMALL
GASTEIGER

@<TRIPOS>ATOM
      1 N         142.5693  142.8639  163.9449 N.am    1  UNL1       -0.3012
      2 C         142.6234  144.3293  163.6291 C.2     1  UNL1        0.2352
      3 O         143.7254  145.1775  164.1913 O.2     1  UNL1       -0.2737
      4 H         141.8459  142.3072  163.5760 H       1  UNL1        0.1497
      5 C         141.5753  144.9464  162.7512 C.3     1  UNL1        0.1166
      6 N         141.1991  145.5520  164.0708 N.3     1  UNL1       -0.3162
      7 C         142.3156  144.1264  161.7363 C.3     1  UNL1        0.0739
      8 C         141.8771  144.1339  160.3019 C.3     1  UNL1        0.2039
      9 N         140.6984  144.9613  159.8822 N.pl3   1  UNL1       -0.1931
     10 C         139.9582  145.7813  160.8970 C.3     1  UNL1        0.2039
     11 C         140.3967  145.7738  162.3315 C.3     1  UNL1        0.0739
     12 H         141.8386  145.2191  164.7924 H       1  UNL1        0.1192
     13 H         140.2455  145.2804  164.3101 H       1  UNL1        0.1192
     14 C         140.2600  144.9688  158.4477 C.2     1  UNL1        0.3205
     15 N         140.6831  146.0853  157.5399 N.2     1  UNL1        0.0097
     16 C         140.2447  146.0928  156.1055 C.2     1  UNL1        0.4717
     17 N         139.3831  144.9836  155.5788 N.2     1  UNL1        0.0158
     18 C         138.9599  143.8670  156.4866 C.2     1  UNL1        0.3714
     19 N         138.1189  142.6472  156.2525 N.2     1  UNL1       -0.0339
     20 C         138.0376  141.8859  157.5424 C.2     1  UNL1        0.2323
     21 C         138.8283  142.6352  158.5736 C.2     1  UNL1        0.0486
     22 C         139.3983  143.8596  157.9211 C.3     1  UNL1        0.2428
     23 C         143.6173  142.2467  164.8229 C.3     1  UNL1        0.0941
     24 C         143.2276  141.6196  166.1286 C.ar    1  UNL1       -0.0045
     25 C         142.8379  140.1719  166.1786 C.ar    1  UNL1       -0.0018
     26 C         142.4482  139.5448  167.4843 C.ar    1  UNL1        0.0111
     27 C         142.4482  140.3654  168.7399 C.ar    1  UNL1        0.0577
     28 CL        142.0585  139.7382  170.0457 Cl      1  UNL1       -0.0822
     29 C         142.8379  141.8130  168.6900 C.ar    1  UNL1        0.0111
     30 C         143.2276  142.4402  167.3842 C.ar    1  UNL1       -0.0018
     31 C         145.0550  142.2567  164.3951 C.3     1  UNL1        0.0256
     32 C         145.4992  141.4109  163.2386 C.3     1  UNL1        0.0194
     33 C         144.8581  140.0769  162.9952 C.3     1  UNL1        0.0722
     34 C         143.9070  138.3628  161.2900 C.3     1  UNL1        0.0897
     35 N         144.2283  139.7787  161.6668 N.3     1  UNL1       -0.2703
     36 C         143.9197  140.8964  160.7153 C.3     1  UNL1        0.0897
@<TRIPOS>BOND
     1    34    35    1
     2    35    36    1
     3    35    33    1
     4    33    32    1
     5    32    31    1
     6    31    23    1
     7    23     1    1
     8     1     2   am
     9     2     3    2
    10     2     5    1
    11     5     6    1
    12     5     7    1
    13     7     8    1
    14     8     9    1
    15     9    14    1
    16    14    15    2
    17    15    16    1
    18    16    17    2
    19    17    18    1
    20    18    19    2
    21    19    20    1
    22    20    21    2
    23    21    22    1
    24     9    10    1
    25    10    11    1
    26    23    24    1
    27    24    25   ar
    28    25    26   ar
    29    26    27   ar
    30    27    28    1
    31    27    29   ar
    32    29    30   ar
    33    11     5    1
    34    30    24   ar
    35    22    14    1
    36    22    18    1
    37     1     4    1
    38     6    12    1
    39     6    13    1
@<TRIPOS>MOLECULE
*****
 36 39 0 0 0
SMALL
GASTEIGER

@<TRIPOS>ATOM
      1 N         141.0185  140.9424  164.5384 N.am    1  UNL1       -0.3012
      2 C         141.6205  142.3161  164.5642 C.2     1  UNL1        0.2352
      3 O         142.7644  142.6164  165.4868 O.2     1  UNL1       -0.2737
      4 H         140.2677  140.7453  163.9328 H       1  UNL1        0.1497
      5 C         141.0786  143.3893  163.6673 C.3     1  UNL1        0.1166
      6 N         140.5503  143.8630  164.9888 N.3     1  UNL1       -0.3162
      7 C         141.7951  142.5429  162.6572 C.3     1  UNL1        0.0739
      8 C         141.7862  142.9342  161.2092 C.3     1  UNL1        0.2039
      9 N         141.0608  144.1720  160.7712 N.pl3   1  UNL1       -0.1931
     10 C         140.3443  145.0184  161.7812 C.3     1  UNL1        0.2039
     11 C         140.3532  144.6270  163.2293 C.3     1  UNL1        0.0739
     12 H         140.8431  143.2182  165.7229 H       1  UNL1        0.1192
     13 H         139.5315  143.8992  164.9544 H       1  UNL1        0.1192
     14 C         141.0519  144.5632  159.3231 C.2     1  UNL1        0.3205
     15 N         142.0613  145.5444  158.8052 N.2     1  UNL1        0.0097
     16 C         142.0525  145.9357  157.3572 C.2     1  UNL1        0.4717
     17 N         141.0341  145.3458  156.4270 N.2     1  UNL1        0.0158
     18 C         140.0247  144.3646  156.9450 C.2     1  UNL1        0.3714
     19 N         138.9085  143.6229  156.2712 N.2     1  UNL1       -0.0339
     20 C         138.2276  142.7732  157.3029 C.2     1  UNL1        0.2323
     21 C         138.9229  142.9898  158.6142 C.2     1  UNL1        0.0486
     22 C         140.0336  143.9733  158.3931 C.3     1  UNL1        0.2428
     23 C         141.5604  139.8691  165.4353 C.3     1  UNL1        0.0941
     24 C         141.2642  139.8999  166.9054 C.ar    1  UNL1       -0.0045
     25 C         139.8847  140.2409  167.3856 C.ar    1  UNL1       -0.0018
     26 C         139.5885  140.2717  168.8557 C.ar    1  UNL1        0.0111
     27 C         140.6720  139.9615  169.8457 C.ar    1  UNL1        0.0577
     28 CL        140.3758  139.9924  171.3159 Cl      1  UNL1       -0.0822
     29 C         142.0515  139.6205  169.3655 C.ar    1  UNL1        0.0111
     30 C         142.3477  139.5897  167.8953 C.ar    1  UNL1       -0.0018
     31 C         142.3984  138.7650  164.8619 C.3     1  UNL1        0.0256
     32 C         141.7539  137.4812  164.4301 C.3     1  UNL1        0.0194
     33 C         140.7923  137.4749  163.2789 C.3     1  UNL1        0.0722
     34 C         138.7821  137.6048  164.9197 C.3     1  UNL1        0.0897
     35 N         139.3272  137.6830  163.5245 N.3     1  UNL1       -0.2703
     36 C         138.4072  137.9693  162.3749 C.3     1  UNL1        0.0897
@<TRIPOS>BOND
     1    34    35    1
     2    35    36    1
     3    35    33    1
     4    33    32    1
     5    32    31    1
     6    31    23    1
     7    23     1    1
     8     1     2   am
     9     2     3    2
    10     2     5    1
    11     5     6    1
    12     5     7    1
    13     7     8    1
    14     8     9    1
    15     9    14    1
    16    14    15    2
    17    15    16    1
    18    16    17    2
    19    17    18    1
    20    18    19    2
    21    19    20    1
    22    20    21    2
    23    21    22    1
    24     9    10    1
    25    10    11    1
    26    23    24    1
    27    24    25   ar
    28    25    26   ar
    29    26    27   ar
    30    27    28    1
    31    27    29   ar
    32    29    30   ar
    33    11     5    1
    34    30    24   ar
    35    22    14    1
    36    22    18    1
    37     1     4    1
    38     6    12    1
    39     6    13    1
@<TRIPOS>MOLECULE
*****
 36 39 0 0 0
SMALL
GASTEIGER

@<TRIPOS>ATOM
      1 N         142.3294  139.9740  164.2123 N.am    1  UNL1       -0.3012
      2 C         143.7969  140.0356  163.9076 C.2     1  UNL1        0.2352
      3 O         144.7434  139.0875  164.5821 O.2     1  UNL1       -0.2737
      4 H         141.7082  140.5963  163.7696 H       1  UNL1        0.1497
      5 C         144.3176  141.0453  162.9282 C.3     1  UNL1        0.1166
      6 N         145.3574  141.1645  164.0026 N.3     1  UNL1       -0.3162
      7 C         143.0969  140.5755  162.1937 C.3     1  UNL1        0.0739
      8 C         142.7581  141.1567  160.8532 C.3     1  UNL1        0.2039
      9 N         143.6399  142.2079  160.2469 N.pl3   1  UNL1       -0.1931
     10 C         144.8606  142.6777  160.9812 C.3     1  UNL1        0.2039
     11 C         145.1994  142.0964  162.3218 C.3     1  UNL1        0.0739
     12 H         145.1366  140.5207  164.7623 H       1  UNL1        0.1192
     13 H         145.3697  142.1200  164.3594 H       1  UNL1        0.1192
     14 C         143.3010  142.7892  158.9062 C.2     1  UNL1        0.3205
     15 N         144.0074  142.3003  157.6766 N.2     1  UNL1        0.0097
     16 C         143.6686  142.8815  156.3360 C.2     1  UNL1        0.4717
     17 N         142.6233  143.9517  156.2249 N.2     1  UNL1        0.0158
     18 C         141.9169  144.4405  157.4546 C.2     1  UNL1        0.3714
     19 N         140.8504  145.4762  157.6545 N.2     1  UNL1       -0.0339
     20 C         140.5302  145.5350  159.1187 C.2     1  UNL1        0.2323
     21 C         141.3987  144.5357  159.8237 C.2     1  UNL1        0.0486
     22 C         142.2558  143.8593  158.7952 C.3     1  UNL1        0.2428
     23 C         141.8086  138.9643  165.1918 C.3     1  UNL1        0.0941
     24 C         141.5657  139.3591  166.6183 C.ar    1  UNL1       -0.0045
     25 C         140.2091  139.8376  167.0435 C.ar    1  UNL1       -0.0018
     26 C         139.9661  140.2324  168.4700 C.ar    1  UNL1        0.0111
     27 C         141.0798  140.1489  169.4714 C.ar    1  UNL1        0.0577
     28 CL        140.8369  140.5438  170.8980 Cl      1  UNL1       -0.0822
     29 C         142.4364  139.6704  169.0463 C.ar    1  UNL1        0.0111
     30 C         142.6794  139.2756  167.6197 C.ar    1  UNL1       -0.0018
     31 C         141.5307  137.5597  164.7446 C.3     1  UNL1        0.0256
     32 C         140.4151  137.2867  163.7796 C.3     1  UNL1        0.0194
     33 C         139.0319  137.7886  164.0709 C.3     1  UNL1        0.0722
     34 C         137.9703  138.5206  161.8155 C.3     1  UNL1        0.0897
     35 N         138.4228  138.8525  163.2066 N.3     1  UNL1       -0.2703
     36 C         138.2661  140.2482  163.7332 C.3     1  UNL1        0.0897
@<TRIPOS>BOND
     1    34    35    1
     2    35    36    1
     3    35    33    1
     4    33    32    1
     5    32    31    1
     6    31    23    1
     7    23     1    1
     8     1     2   am
     9     2     3    2
    10     2     5    1
    11     5     6    1
    12     5     7    1
    13     7     8    1
    14     8     9    1
    15     9    14    1
    16    14    15    2
    17    15    16    1
    18    16    17    2
    19    17    18    1
    20    18    19    2
    21    19    20    1
    22    20    21    2
    23    21    22    1
    24     9    10    1
    25    10    11    1
    26    23    24    1
    27    24    25   ar
    28    25    26   ar
    29    26    27   ar
    30    27    28    1
    31    27    29   ar
    32    29    30   ar
    33    11     5    1
    34    30    24   ar
    35    22    14    1
    36    22    18    1
    37     1     4    1
    38     6    12    1
    39     6    13    1
@<TRIPOS>MOLECULE
*****
 36 39 0 0 0
SMALL
GASTEIGER

@<TRIPOS>ATOM
      1 N         142.1600  140.1558  164.4010 N.am    1  UNL1       -0.3012
      2 C         143.6238  140.1094  164.0764 C.2     1  UNL1        0.2352
      3 O         144.5012  139.0739  164.7151 O.2     1  UNL1       -0.2737
      4 H         141.5841  140.8354  163.9818 H       1  UNL1        0.1497
      5 C         144.2100  141.0985  163.1131 C.3     1  UNL1        0.1166
      6 N         145.2914  141.0747  164.1522 N.3     1  UNL1       -0.3162
      7 C         142.9249  140.7787  162.4084 C.3     1  UNL1        0.0739
      8 C         142.6016  141.4398  161.1014 C.3     1  UNL1        0.2039
      9 N         143.5634  142.4207  160.4989 N.pl3   1  UNL1       -0.1931
     10 C         144.8484  142.7405  161.2035 C.3     1  UNL1        0.2039
     11 C         145.1717  142.0793  162.5106 C.3     1  UNL1        0.0739
     12 H         145.0327  140.4281  164.8974 H       1  UNL1        0.1192
     13 H         145.4107  142.0105  164.5401 H       1  UNL1        0.1192
     14 C         143.2400  143.0818  159.1918 C.2     1  UNL1        0.3205
     15 N         142.4473  144.3550  159.1712 N.2     1  UNL1        0.0097
     16 C         142.1240  145.0161  157.8642 C.2     1  UNL1        0.4717
     17 N         142.5934  144.4040  156.5777 N.2     1  UNL1        0.0158
     18 C         143.3861  143.1307  156.5983 C.2     1  UNL1        0.3714
     19 N         143.9792  142.2998  155.4993 N.2     1  UNL1       -0.0339
     20 C         144.6690  141.1251  156.1272 C.2     1  UNL1        0.2323
     21 C         144.5023  141.2301  157.6142 C.2     1  UNL1        0.0486
     22 C         143.7094  142.4696  157.9054 C.3     1  UNL1        0.2428
     23 C         141.5737  139.1667  165.3643 C.3     1  UNL1        0.0941
     24 C         141.4126  139.5328  166.8100 C.ar    1  UNL1       -0.0045
     25 C         140.0653  139.9279  167.3380 C.ar    1  UNL1       -0.0018
     26 C         139.9043  140.2940  168.7836 C.ar    1  UNL1        0.0111
     27 C         141.0904  140.2650  169.7013 C.ar    1  UNL1        0.0577
     28 CL        140.9293  140.6311  171.1471 Cl      1  UNL1       -0.0822
     29 C         142.4377  139.8698  169.1734 C.ar    1  UNL1        0.0111
     30 C         142.5988  139.5037  167.7277 C.ar    1  UNL1       -0.0018
     31 C         141.1485  137.8115  164.8819 C.3     1  UNL1        0.0256
     32 C         139.6981  137.5278  164.6251 C.3     1  UNL1        0.0194
     33 C         139.1484  137.6332  163.2334 C.3     1  UNL1        0.0722
     34 C         138.2985  140.0345  163.7444 C.3     1  UNL1        0.0897
     35 N         138.3904  138.8588  162.8174 N.3     1  UNL1       -0.2703
     36 C         137.7243  138.9089  161.4743 C.3     1  UNL1        0.0897
@<TRIPOS>BOND
     1    34    35    1
     2    35    36    1
     3    35    33    1
     4    33    32    1
     5    32    31    1
     6    31    23    1
     7    23     1    1
     8     1     2   am
     9     2     3    2
    10     2     5    1
    11     5     6    1
    12     5     7    1
    13     7     8    1
    14     8     9    1
    15     9    14    1
    16    14    15    2
    17    15    16    1
    18    16    17    2
    19    17    18    1
    20    18    19    2
    21    19    20    1
    22    20    21    2
    23    21    22    1
    24     9    10    1
    25    10    11    1
    26    23    24    1
    27    24    25   ar
    28    25    26   ar
    29    26    27   ar
    30    27    28    1
    31    27    29   ar
    32    29    30   ar
    33    11     5    1
    34    30    24   ar
    35    22    14    1
    36    22    18    1
    37     1     4    1
    38     6    12    1
    39     6    13    1
@<TRIPOS>MOLECULE
*****
 36 39 0 0 0
SMALL
GASTEIGER

@<TRIPOS>ATOM
      1 N         140.6851  140.4213  164.4592 N.am    1  UNL1       -0.3012
      2 C         141.2710  139.0646  164.2023 C.2     1  UNL1        0.2352
      3 O         140.7202  137.8631  164.9115 O.2     1  UNL1       -0.2737
      4 H         141.0466  141.2099  163.9937 H       1  UNL1        0.1497
      5 C         142.4078  138.9095  163.2361 C.3     1  UNL1        0.1166
      6 N         143.1319  138.6790  164.5292 N.3     1  UNL1       -0.3162
      7 C         141.2889  139.1939  162.2783 C.3     1  UNL1        0.0739
      8 C         141.5582  139.2431  160.8036 C.3     1  UNL1        0.2039
      9 N         142.9465  139.0080  160.2864 N.pl3   1  UNL1       -0.1931
     10 C         144.0655  138.7236  161.2441 C.3     1  UNL1        0.2039
     11 C         143.7961  138.6744  162.7189 C.3     1  UNL1        0.0739
     12 H         142.4742  138.7538  165.3052 H       1  UNL1        0.1192
     13 H         143.8661  139.3788  164.6372 H       1  UNL1        0.1192
     14 C         143.2158  139.0572  158.8116 C.2     1  UNL1        0.3205
     15 N         142.9305  137.8582  157.9567 N.2     1  UNL1        0.0097
     16 C         143.1998  137.9073  156.4820 C.2     1  UNL1        0.4717
     17 N         143.7544  139.1556  155.8620 N.2     1  UNL1        0.0158
     18 C         144.0397  140.3547  156.7169 C.2     1  UNL1        0.3714
     19 N         144.5841  141.7137  156.3902 N.2     1  UNL1       -0.0339
     20 C         144.6512  142.5044  157.6631 C.2     1  UNL1        0.2323
     21 C         144.1483  141.6341  158.7765 C.2     1  UNL1        0.0486
     22 C         143.7704  140.3054  158.1917 C.3     1  UNL1        0.2428
     23 C         139.5482  140.5765  165.4255 C.3     1  UNL1        0.0941
     24 C         139.8217  140.9559  166.8506 C.ar    1  UNL1       -0.0045
     25 C         140.4290  142.2902  167.1682 C.ar    1  UNL1       -0.0018
     26 C         140.7025  142.6697  168.5934 C.ar    1  UNL1        0.0111
     27 C         140.3687  141.7148  169.7010 C.ar    1  UNL1        0.0577
     28 CL        140.6423  142.0942  171.1263 Cl      1  UNL1       -0.0822
     29 C         139.7615  140.3805  169.3835 C.ar    1  UNL1        0.0111
     30 C         139.4879  140.0010  167.9582 C.ar    1  UNL1       -0.0018
     31 C         138.1379  140.3523  164.9664 C.3     1  UNL1        0.0256
     32 C         137.7593  140.6319  163.5421 C.3     1  UNL1        0.0194
     33 C         137.3468  142.0149  163.1334 C.3     1  UNL1        0.0722
     34 C         137.9967  144.0979  164.5437 C.3     1  UNL1        0.0897
     35 N         138.2605  143.1765  163.3898 N.3     1  UNL1       -0.2703
     36 C         139.4382  143.4168  162.4923 C.3     1  UNL1        0.0897
@<TRIPOS>BOND
     1    34    35    1
     2    35    36    1
     3    35    33    1
     4    33    32    1
     5    32    31    1
     6    31    23    1
     7    23     1    1
     8     1     2   am
     9     2     3    2
    10     2     5    1
    11     5     6    1
    12     5     7    1
    13     7     8    1
    14     8     9    1
    15     9    14    1
    16    14    15    2
    17    15    16    1
    18    16    17    2
    19    17    18    1
    20    18    19    2
    21    19    20    1
    22    20    21    2
    23    21    22    1
    24     9    10    1
    25    10    11    1
    26    23    24    1
    27    24    25   ar
    28    25    26   ar
    29    26    27   ar
    30    27    28    1
    31    27    29   ar
    32    29    30   ar
    33    11     5    1
    34    30    24   ar
    35    22    14    1
    36    22    18    1
    37     1     4    1
    38     6    12    1
    39     6    13    1
@<TRIPOS>MOLECULE
*****
 36 39 0 0 0
SMALL
GASTEIGER

@<TRIPOS>ATOM
      1 N         139.8877  142.1167  164.5373 N.am    1  UNL1       -0.3012
      2 C         139.0867  143.3134  164.1171 C.2     1  UNL1        0.2352
      3 O         137.7577  143.5882  164.7559 O.2     1  UNL1       -0.2737
      4 H         140.7600  141.9364  164.1180 H       1  UNL1        0.1497
      5 C         139.6149  144.2352  163.0583 C.3     1  UNL1        0.1166
      6 N         139.5090  145.1928  164.2078 N.3     1  UNL1       -0.3162
      7 C         139.5374  142.9574  162.2763 C.3     1  UNL1        0.0739
      8 C         139.9513  142.9340  160.8348 C.3     1  UNL1        0.2039
      9 N         140.4428  144.1883  160.1751 N.pl3   1  UNL1       -0.1931
     10 C         140.5203  145.4661  160.9569 C.3     1  UNL1        0.2039
     11 C         140.1064  145.4894  162.3985 C.3     1  UNL1        0.0739
     12 H         139.1531  144.7015  165.0279 H       1  UNL1        0.1192
     13 H         138.8715  145.9501  163.9619 H       1  UNL1        0.1192
     14 C         140.8567  144.1649  158.7335 C.2     1  UNL1        0.3205
     15 N         139.9461  144.7272  157.6825 N.2     1  UNL1        0.0097
     16 C         140.3600  144.7038  156.2410 C.2     1  UNL1        0.4717
     17 N         141.6845  144.1179  155.8503 N.2     1  UNL1        0.0158
     18 C         142.5950  143.5556  156.9013 C.2     1  UNL1        0.3714
     19 N         143.9502  142.9179  156.8184 N.2     1  UNL1       -0.0339
     20 C         144.3738  142.5472  158.2088 C.2     1  UNL1        0.2323
     21 C         143.2805  142.9558  159.1510 C.2     1  UNL1        0.0486
     22 C         142.1811  143.5790  158.3429 C.3     1  UNL1        0.2428
     23 C         139.3595  141.1949  165.5962 C.3     1  UNL1        0.0941
     24 C         139.8471  141.3184  167.0093 C.ar    1  UNL1       -0.0045
     25 C         139.6506  140.1851  167.9723 C.ar    1  UNL1       -0.0018
     26 C         140.1382  140.3087  169.3854 C.ar    1  UNL1        0.0111
     27 C         140.8223  141.5654  169.8356 C.ar    1  UNL1        0.0577
     28 CL        141.3100  141.6889  171.2488 Cl      1  UNL1       -0.0822
     29 C         141.0189  142.6986  168.8727 C.ar    1  UNL1        0.0111
     30 C         140.5313  142.5751  167.4595 C.ar    1  UNL1       -0.0018
     31 C         138.3438  140.1495  165.2419 C.3     1  UNL1        0.0256
     32 C         138.3205  139.5640  163.8611 C.3     1  UNL1        0.0194
     33 C         138.8608  138.1852  163.6219 C.3     1  UNL1        0.0722
     34 C         139.2832  138.1222  161.0592 C.3     1  UNL1        0.0897
     35 N         139.7773  137.9296  162.4624 N.3     1  UNL1       -0.2703
     36 C         141.1879  137.4815  162.7059 C.3     1  UNL1        0.0897
@<TRIPOS>BOND
     1    34    35    1
     2    35    36    1
     3    35    33    1
     4    33    32    1
     5    32    31    1
     6    31    23    1
     7    23     1    1
     8     1     2   am
     9     2     3    2
    10     2     5    1
    11     5     6    1
    12     5     7    1
    13     7     8    1
    14     8     9    1
    15     9    14    1
    16    14    15    2
    17    15    16    1
    18    16    17    2
    19    17    18    1
    20    18    19    2
    21    19    20    1
    22    20    21    2
    23    21    22    1
    24     9    10    1
    25    10    11    1
    26    23    24    1
    27    24    25   ar
    28    25    26   ar
    29    26    27   ar
    30    27    28    1
    31    27    29   ar
    32    29    30   ar
    33    11     5    1
    34    30    24   ar
    35    22    14    1
    36    22    18    1
    37     1     4    1
    38     6    12    1
    39     6    13    1
