@<TRIPOS>MOLECULE
*****
 30 34 0 0 0
SMALL
GASTEIGER

@<TRIPOS>ATOM
      1 N         140.9983  138.6483  162.3488 N.3     1  UNL1       -0.2725
      2 C         140.7199  140.0546  162.7903 C.3     1  UNL1        0.0738
      3 C         140.3733  140.3364  164.2222 C.3     1  UNL1        0.0376
      4 C         140.3051  139.2120  165.2127 C.3     1  UNL1        0.0841
      5 C         140.5836  137.8057  164.7712 C.3     1  UNL1        0.0376
      6 C         140.9302  137.5239  163.3393 C.3     1  UNL1        0.0738
      7 N         139.9585  139.4938  166.6446 N.am    1  UNL1       -0.2423
      8 C         138.6434  139.2066  167.3063 C.2     1  UNL1        0.3309
      9 O         137.4439  138.5872  166.6524 O.2     1  UNL1       -0.2501
     10 N         138.7382  139.6476  168.7369 N.am    1  UNL1       -0.1647
     11 C         140.1120  140.2073  168.9594 C.2     1  UNL1        0.0706
     12 C         140.7736  140.7912  170.1723 C.3     1  UNL1        0.0705
     13 C         142.1895  141.2802  170.0922 C.2     1  UNL1       -0.0199
     14 C         142.9437  141.1851  168.7990 C.2     1  UNL1       -0.0029
     15 C         142.2820  140.6012  167.5860 C.2     1  UNL1        0.0156
     16 C         140.8662  140.1123  167.6662 C.2     1  UNL1        0.0668
     17 C         141.3449  138.3665  160.9169 C.3     1  UNL1        0.0739
     18 C         142.6129  137.6387  160.5814 C.3     1  UNL1        0.0392
     19 C         143.9408  138.2838  160.8473 C.3     1  UNL1        0.0998
     20 O         143.8466  139.6083  158.1571 O.2     1  UNL1       -0.2705
     21 C         144.0392  140.4351  159.3938 C.2     1  UNL1        0.2739
     22 C         144.1848  141.9240  159.2854 C.3     1  UNL1        0.2900
     23 O         144.3774  142.7508  160.5221 O.3     1  UNL1       -0.4643
     24 C         144.4245  142.0886  161.8672 C.ar    1  UNL1        0.1528
     25 C         144.6172  142.9153  163.1038 C.ar    1  UNL1        0.0382
     26 C         144.6643  142.2531  164.4489 C.ar    1  UNL1        0.0032
     27 C         144.5188  140.7641  164.5573 C.ar    1  UNL1        0.0015
     28 C         144.3261  139.9373  163.3206 C.ar    1  UNL1        0.0180
     29 C         144.2790  140.5996  161.9756 C.ar    1  UNL1        0.0881
     30 N         144.0863  139.7728  160.7389 N.am    1  UNL1       -0.2529
@<TRIPOS>BOND
     1    20    21    2
     2    21    22    1
     3    22    23    1
     4    23    24    1
     5    24    25   ar
     6    25    26   ar
     7    26    27   ar
     8    27    28   ar
     9    28    29   ar
    10    29    30    1
    11    30    19    1
    12    19    18    1
    13    18    17    1
    14    17     1    1
    15     1     2    1
    16     2     3    1
    17     3     4    1
    18     4     7    1
    19     7     8   am
    20     8     9    2
    21     8    10    1
    22    10    11    2
    23    11    12    1
    24    12    13    1
    25    13    14    2
    26    14    15    1
    27    15    16    2
    28     4     5    1
    29     5     6    1
    30    30    21   am
    31     6     1    1
    32    29    24   ar
    33    16     7    1
    34    16    11    1
@<TRIPOS>MOLECULE
*****
 30 34 0 0 0
SMALL
GASTEIGER

@<TRIPOS>ATOM
      1 N         139.9557  138.8984  163.6030 N.3     1  UNL1       -0.2725
      2 C         140.8494  140.0366  163.9975 C.3     1  UNL1        0.0738
      3 C         140.9041  140.4864  165.4275 C.3     1  UNL1        0.0376
      4 C         140.0651  139.7979  166.4629 C.3     1  UNL1        0.0841
      5 C         139.1713  138.6597  166.0682 C.3     1  UNL1        0.0376
      6 C         139.1166  138.2099  164.6383 C.3     1  UNL1        0.0738
      7 N         140.1197  140.2476  167.8928 N.am    1  UNL1       -0.2423
      8 C         139.0975  139.9514  168.9499 C.2     1  UNL1        0.3309
      9 O         137.8413  139.1535  168.7626 O.2     1  UNL1       -0.2501
     10 N         139.5522  140.5932  170.2271 N.am    1  UNL1       -0.1647
     11 C         140.8554  141.2861  169.9594 C.2     1  UNL1        0.0706
     12 C         141.7679  142.0839  170.8430 C.3     1  UNL1        0.0705
     13 C         143.0314  142.6682  170.2839 C.2     1  UNL1       -0.0199
     14 C         143.3821  142.4545  168.8411 C.2     1  UNL1       -0.0029
     15 C         142.4695  141.6567  167.9576 C.2     1  UNL1        0.0156
     16 C         141.2061  141.0725  168.5167 C.2     1  UNL1        0.0668
     17 C         139.9011  138.4487  162.1730 C.3     1  UNL1        0.0739
     18 C         138.5831  138.1042  161.5450 C.3     1  UNL1        0.0392
     19 C         137.5233  139.1559  161.4010 C.3     1  UNL1        0.0998
     20 O         138.2293  139.7550  158.5474 O.2     1  UNL1       -0.2705
     21 C         138.2536  140.8504  159.5720 C.2     1  UNL1        0.2739
     22 C         138.6310  142.2453  159.1697 C.3     1  UNL1        0.2900
     23 O         138.6553  143.3406  160.1942 O.3     1  UNL1       -0.4643
     24 C         138.3023  143.0411  161.6210 C.ar    1  UNL1        0.1528
     25 C         138.3266  144.1365  162.6454 C.ar    1  UNL1        0.0382
     26 C         137.9736  143.8369  164.0722 C.ar    1  UNL1        0.0032
     27 C         137.5963  142.4420  164.4744 C.ar    1  UNL1        0.0015
     28 C         137.5719  141.3466  163.4500 C.ar    1  UNL1        0.0180
     29 C         137.9249  141.6462  162.0233 C.ar    1  UNL1        0.0881
     30 N         137.9006  140.5508  160.9987 N.am    1  UNL1       -0.2529
@<TRIPOS>BOND
     1    20    21    2
     2    21    22    1
     3    22    23    1
     4    23    24    1
     5    24    25   ar
     6    25    26   ar
     7    26    27   ar
     8    27    28   ar
     9    28    29   ar
    10    29    30    1
    11    30    19    1
    12    19    18    1
    13    18    17    1
    14    17     1    1
    15     1     2    1
    16     2     3    1
    17     3     4    1
    18     4     7    1
    19     7     8   am
    20     8     9    2
    21     8    10    1
    22    10    11    2
    23    11    12    1
    24    12    13    1
    25    13    14    2
    26    14    15    1
    27    15    16    2
    28     4     5    1
    29     5     6    1
    30    30    21   am
    31     6     1    1
    32    29    24   ar
    33    16     7    1
    34    16    11    1
@<TRIPOS>MOLECULE
*****
 30 34 0 0 0
SMALL
GASTEIGER

@<TRIPOS>ATOM
      1 N         141.3357  140.1515  162.5845 N.3     1  UNL1       -0.2725
      2 C         140.2107  139.9114  163.5470 C.3     1  UNL1        0.0738
      3 C         140.4650  139.9577  165.0246 C.3     1  UNL1        0.0376
      4 C         141.8443  140.2442  165.5396 C.3     1  UNL1        0.0841
      5 C         142.9694  140.4844  164.5770 C.3     1  UNL1        0.0376
      6 C         142.7151  140.4380  163.0995 C.3     1  UNL1        0.0738
      7 N         142.0987  140.2906  167.0171 N.am    1  UNL1       -0.2423
      8 C         142.9293  139.3172  167.7997 C.2     1  UNL1        0.3309
      9 O         143.6515  138.1266  167.2422 O.2     1  UNL1       -0.2501
     10 N         142.9110  139.7435  169.2378 N.am    1  UNL1       -0.1647
     11 C         142.0690  140.9804  169.3439 C.2     1  UNL1        0.0706
     12 C         141.6947  141.8423  170.5130 C.3     1  UNL1        0.0705
     13 C         140.8182  143.0426  170.3097 C.2     1  UNL1       -0.0199
     14 C         140.3161  143.3807  168.9372 C.2     1  UNL1       -0.0029
     15 C         140.6905  142.5186  167.7681 C.2     1  UNL1        0.0156
     16 C         141.5670  141.3185  167.9715 C.2     1  UNL1        0.0668
     17 C         141.0814  140.1052  161.1070 C.3     1  UNL1        0.0739
     18 C         141.4795  141.2632  160.2407 C.3     1  UNL1        0.0392
     19 C         140.8280  142.6009  160.4308 C.3     1  UNL1        0.0998
     20 O         143.5702  143.7398  160.8588 O.2     1  UNL1       -0.2705
     21 C         142.4918  143.9793  161.8736 C.2     1  UNL1        0.2739
     22 C         142.7845  144.7882  163.1024 C.3     1  UNL1        0.2900
     23 O         141.7062  145.0277  164.1172 O.3     1  UNL1       -0.4643
     24 C         140.3350  144.4583  163.9032 C.ar    1  UNL1        0.1528
     25 C         139.2567  144.6978  164.9179 C.ar    1  UNL1        0.0382
     26 C         137.8856  144.1283  164.7039 C.ar    1  UNL1        0.0032
     27 C         137.5929  143.3194  163.4751 C.ar    1  UNL1        0.0015
     28 C         138.6712  143.0799  162.4603 C.ar    1  UNL1        0.0180
     29 C         140.0423  143.6493  162.6744 C.ar    1  UNL1        0.0881
     30 N         141.1207  143.4099  161.6596 N.am    1  UNL1       -0.2529
@<TRIPOS>BOND
     1    20    21    2
     2    21    22    1
     3    22    23    1
     4    23    24    1
     5    24    25   ar
     6    25    26   ar
     7    26    27   ar
     8    27    28   ar
     9    28    29   ar
    10    29    30    1
    11    30    19    1
    12    19    18    1
    13    18    17    1
    14    17     1    1
    15     1     2    1
    16     2     3    1
    17     3     4    1
    18     4     7    1
    19     7     8   am
    20     8     9    2
    21     8    10    1
    22    10    11    2
    23    11    12    1
    24    12    13    1
    25    13    14    2
    26    14    15    1
    27    15    16    2
    28     4     5    1
    29     5     6    1
    30    30    21   am
    31     6     1    1
    32    29    24   ar
    33    16     7    1
    34    16    11    1
@<TRIPOS>MOLECULE
*****
 30 34 0 0 0
SMALL
GASTEIGER

@<TRIPOS>ATOM
      1 N         143.6852  142.2606  163.3156 N.3     1  UNL1       -0.2725
      2 C         144.1223  142.9998  164.5454 C.3     1  UNL1        0.0738
      3 C         143.6930  142.5210  165.9006 C.3     1  UNL1        0.0376
      4 C         142.8267  141.3029  166.0259 C.3     1  UNL1        0.0841
      5 C         142.3896  140.5636  164.7961 C.3     1  UNL1        0.0376
      6 C         142.8189  141.0425  163.4409 C.3     1  UNL1        0.0738
      7 N         142.3974  140.8241  167.3811 N.am    1  UNL1       -0.2423
      8 C         142.7063  139.4847  167.9815 C.2     1  UNL1        0.3309
      9 O         143.4988  138.3890  167.3323 O.2     1  UNL1       -0.2501
     10 N         142.0837  139.4334  169.3452 N.am    1  UNL1       -0.1647
     11 C         141.3900  140.7411  169.5876 C.2     1  UNL1        0.0706
     12 C         140.6068  141.2601  170.7568 C.3     1  UNL1        0.0705
     13 C         140.0175  142.6388  170.7122 C.2     1  UNL1       -0.0199
     14 C         140.2114  143.4984  169.4982 C.2     1  UNL1       -0.0029
     15 C         140.9946  142.9792  168.3289 C.2     1  UNL1        0.0156
     16 C         141.5839  141.6006  168.3737 C.2     1  UNL1        0.0668
     17 C         144.1145  142.7394  161.9605 C.3     1  UNL1        0.0739
     18 C         143.0986  142.9170  160.8712 C.3     1  UNL1        0.0392
     19 C         142.0612  143.9948  160.9817 C.3     1  UNL1        0.0998
     20 O         140.6327  142.8791  158.5911 O.2     1  UNL1       -0.2705
     21 C         139.8949  143.0732  159.8827 C.2     1  UNL1        0.2739
     22 C         138.4428  142.7094  159.9790 C.3     1  UNL1        0.2900
     23 O         137.7050  142.9035  161.2704 O.3     1  UNL1       -0.4643
     24 C         138.4193  143.4613  162.4658 C.ar    1  UNL1        0.1528
     25 C         137.6815  143.6553  163.7573 C.ar    1  UNL1        0.0382
     26 C         138.3958  144.2131  164.9525 C.ar    1  UNL1        0.0032
     27 C         139.8478  144.5769  164.8563 C.ar    1  UNL1        0.0015
     28 C         140.5856  144.3829  163.5648 C.ar    1  UNL1        0.0180
     29 C         139.8713  143.8251  162.3695 C.ar    1  UNL1        0.0881
     30 N         140.6091  143.6310  161.0780 N.am    1  UNL1       -0.2529
@<TRIPOS>BOND
     1    20    21    2
     2    21    22    1
     3    22    23    1
     4    23    24    1
     5    24    25   ar
     6    25    26   ar
     7    26    27   ar
     8    27    28   ar
     9    28    29   ar
    10    29    30    1
    11    30    19    1
    12    19    18    1
    13    18    17    1
    14    17     1    1
    15     1     2    1
    16     2     3    1
    17     3     4    1
    18     4     7    1
    19     7     8   am
    20     8     9    2
    21     8    10    1
    22    10    11    2
    23    11    12    1
    24    12    13    1
    25    13    14    2
    26    14    15    1
    27    15    16    2
    28     4     5    1
    29     5     6    1
    30    30    21   am
    31     6     1    1
    32    29    24   ar
    33    16     7    1
    34    16    11    1
@<TRIPOS>MOLECULE
*****
 30 34 0 0 0
SMALL
GASTEIGER

@<TRIPOS>ATOM
      1 N         140.5563  139.2298  163.0171 N.3     1  UNL1       -0.2725
      2 C         141.0806  140.6342  162.9651 C.3     1  UNL1        0.0738
      3 C         141.5718  141.2983  164.2173 C.3     1  UNL1        0.0376
      4 C         141.5386  140.5579  165.5214 C.3     1  UNL1        0.0841
      5 C         141.0143  139.1534  165.5733 C.3     1  UNL1        0.0376
      6 C         140.5232  138.4894  164.3212 C.3     1  UNL1        0.0738
      7 N         142.0298  141.2219  166.7735 N.am    1  UNL1       -0.2423
      8 C         143.1940  142.1623  166.8743 C.2     1  UNL1        0.3309
      9 O         144.0715  142.6038  165.7407 O.2     1  UNL1       -0.2501
     10 N         143.3267  142.5837  168.3078 N.am    1  UNL1       -0.1647
     11 C         142.2444  141.9037  169.0929 C.2     1  UNL1        0.0706
     12 C         141.8853  141.9422  170.5487 C.3     1  UNL1        0.0705
     13 C         140.7246  141.1391  171.0564 C.2     1  UNL1       -0.0199
     14 C         139.9230  140.2974  170.1081 C.2     1  UNL1       -0.0029
     15 C         140.2822  140.2589  168.6523 C.2     1  UNL1        0.0156
     16 C         141.4429  141.0621  168.1447 C.2     1  UNL1        0.0668
     17 C         140.0652  138.5658  161.7650 C.3     1  UNL1        0.0739
     18 C         138.6442  138.0940  161.6740 C.3     1  UNL1        0.0392
     19 C         137.5455  139.0742  161.3875 C.3     1  UNL1        0.0998
     20 O         138.1731  139.7132  158.5243 O.2     1  UNL1       -0.2705
     21 C         138.1943  140.8005  159.5575 C.2     1  UNL1        0.2739
     22 C         138.5292  142.2073  159.1591 C.3     1  UNL1        0.2900
     23 O         138.5503  143.2946  160.1922 O.3     1  UNL1       -0.4643
     24 C         138.2365  142.9750  161.6238 C.ar    1  UNL1        0.1528
     25 C         138.2576  144.0623  162.6570 C.ar    1  UNL1        0.0382
     26 C         137.9437  143.7428  164.0885 C.ar    1  UNL1        0.0032
     27 C         137.6088  142.3360  164.4869 C.ar    1  UNL1        0.0015
     28 C         137.5877  141.2487  163.4538 C.ar    1  UNL1        0.0180
     29 C         137.9015  141.5683  162.0223 C.ar    1  UNL1        0.0881
     30 N         137.8804  140.4810  160.9890 N.am    1  UNL1       -0.2529
@<TRIPOS>BOND
     1    20    21    2
     2    21    22    1
     3    22    23    1
     4    23    24    1
     5    24    25   ar
     6    25    26   ar
     7    26    27   ar
     8    27    28   ar
     9    28    29   ar
    10    29    30    1
    11    30    19    1
    12    19    18    1
    13    18    17    1
    14    17     1    1
    15     1     2    1
    16     2     3    1
    17     3     4    1
    18     4     7    1
    19     7     8   am
    20     8     9    2
    21     8    10    1
    22    10    11    2
    23    11    12    1
    24    12    13    1
    25    13    14    2
    26    14    15    1
    27    15    16    2
    28     4     5    1
    29     5     6    1
    30    30    21   am
    31     6     1    1
    32    29    24   ar
    33    16     7    1
    34    16    11    1
@<TRIPOS>MOLECULE
*****
 30 34 0 0 0
SMALL
GASTEIGER

@<TRIPOS>ATOM
      1 N         140.2565  140.1599  162.7177 N.3     1  UNL1       -0.2725
      2 C         139.9380  141.4482  163.4168 C.3     1  UNL1        0.0738
      3 C         139.9316  141.5065  164.9157 C.3     1  UNL1        0.0376
      4 C         140.2437  140.2765  165.7154 C.3     1  UNL1        0.0841
      5 C         140.5623  138.9881  165.0163 C.3     1  UNL1        0.0376
      6 C         140.5687  138.9298  163.5175 C.3     1  UNL1        0.0738
      7 N         140.2374  140.3348  167.2143 N.am    1  UNL1       -0.2423
      8 C         139.2182  139.7049  168.1167 C.2     1  UNL1        0.3309
      9 O         138.0265  138.9061  167.6789 O.2     1  UNL1       -0.2501
     10 N         139.6000  140.0140  169.5340 N.am    1  UNL1       -0.1647
     11 C         140.8551  140.8350  169.5075 C.2     1  UNL1        0.0706
     12 C         141.6901  141.4276  170.6036 C.3     1  UNL1        0.0705
     13 C         142.9192  142.2186  170.2660 C.2     1  UNL1       -0.0199
     14 C         143.3131  142.4168  168.8322 C.2     1  UNL1       -0.0029
     15 C         142.4780  141.8242  167.7361 C.2     1  UNL1        0.0156
     16 C         141.2490  141.0333  168.0738 C.2     1  UNL1        0.0668
     17 C         140.2629  140.1016  161.2189 C.3     1  UNL1        0.0739
     18 C         141.5160  139.7192  160.4885 C.3     1  UNL1        0.0392
     19 C         142.7583  140.5449  160.6474 C.3     1  UNL1        0.0998
     20 O         143.9687  138.0672  161.8288 O.2     1  UNL1       -0.2705
     21 C         144.0566  139.3702  162.5668 C.2     1  UNL1        0.2739
     22 C         144.7497  139.4342  163.8955 C.3     1  UNL1        0.2900
     23 O         144.8375  140.7371  164.6335 O.3     1  UNL1       -0.4643
     24 C         144.2323  141.9760  164.0428 C.ar    1  UNL1        0.1528
     25 C         144.3201  143.2789  164.7808 C.ar    1  UNL1        0.0382
     26 C         143.7149  144.5177  164.1901 C.ar    1  UNL1        0.0032
     27 C         143.0218  144.4536  162.8614 C.ar    1  UNL1        0.0015
     28 C         142.9340  143.1508  162.1234 C.ar    1  UNL1        0.0180
     29 C         143.5392  141.9119  162.7141 C.ar    1  UNL1        0.0881
     30 N         143.4514  140.6090  161.9761 N.am    1  UNL1       -0.2529
@<TRIPOS>BOND
     1    20    21    2
     2    21    22    1
     3    22    23    1
     4    23    24    1
     5    24    25   ar
     6    25    26   ar
     7    26    27   ar
     8    27    28   ar
     9    28    29   ar
    10    29    30    1
    11    30    19    1
    12    19    18    1
    13    18    17    1
    14    17     1    1
    15     1     2    1
    16     2     3    1
    17     3     4    1
    18     4     7    1
    19     7     8   am
    20     8     9    2
    21     8    10    1
    22    10    11    2
    23    11    12    1
    24    12    13    1
    25    13    14    2
    26    14    15    1
    27    15    16    2
    28     4     5    1
    29     5     6    1
    30    30    21   am
    31     6     1    1
    32    29    24   ar
    33    16     7    1
    34    16    11    1
@<TRIPOS>MOLECULE
*****
 30 34 0 0 0
SMALL
GASTEIGER

@<TRIPOS>ATOM
      1 N         142.4716  141.7788  162.7508 N.3     1  UNL1       -0.2725
      2 C         142.1109  142.8125  163.7761 C.3     1  UNL1        0.0738
      3 C         141.5128  142.3927  165.0861 C.3     1  UNL1        0.0376
      4 C         141.2754  140.9392  165.3707 C.3     1  UNL1        0.0841
      5 C         141.6362  139.9055  164.3453 C.3     1  UNL1        0.0376
      6 C         142.2343  140.3253  163.0354 C.3     1  UNL1        0.0738
      7 N         140.6773  140.5194  166.6807 N.am    1  UNL1       -0.2423
      8 C         139.3055  139.9465  166.8803 C.2     1  UNL1        0.3309
      9 O         138.2909  139.6928  165.8050 O.2     1  UNL1       -0.2501
     10 N         139.1264  139.6718  168.3440 N.am    1  UNL1       -0.1647
     11 C         140.3875  140.0749  169.0491 C.2     1  UNL1        0.0706
     12 C         140.7868  140.0326  170.4943 C.3     1  UNL1        0.0705
     13 C         142.1448  140.5142  170.9116 C.2     1  UNL1       -0.0199
     14 C         143.1034  141.0381  169.8835 C.2     1  UNL1       -0.0029
     15 C         142.7040  141.0804  168.4383 C.2     1  UNL1        0.0156
     16 C         141.3460  140.5988  168.0211 C.2     1  UNL1        0.0668
     17 C         143.0697  142.1986  161.4408 C.3     1  UNL1        0.0739
     18 C         142.4621  141.7264  160.1533 C.3     1  UNL1        0.0392
     19 C         141.2083  142.3672  159.6362 C.3     1  UNL1        0.0998
     20 O         141.8580  145.2854  159.3864 O.2     1  UNL1       -0.2705
     21 C         140.8032  144.8317  160.3517 C.2     1  UNL1        0.2739
     22 C         140.0733  145.8372  161.1921 C.3     1  UNL1        0.2900
     23 O         139.0185  145.3837  162.1573 O.3     1  UNL1       -0.4643
     24 C         138.6936  143.9246  162.2822 C.ar    1  UNL1        0.1528
     25 C         137.6389  143.4710  163.2475 C.ar    1  UNL1        0.0382
     26 C         137.3141  142.0120  163.3724 C.ar    1  UNL1        0.0032
     27 C         138.0440  141.0065  162.5320 C.ar    1  UNL1        0.0015
     28 C         139.0987  141.4600  161.5667 C.ar    1  UNL1        0.0180
     29 C         139.4236  142.9191  161.4419 C.ar    1  UNL1        0.0881
     30 N         140.4784  143.3727  160.4766 N.am    1  UNL1       -0.2529
@<TRIPOS>BOND
     1    20    21    2
     2    21    22    1
     3    22    23    1
     4    23    24    1
     5    24    25   ar
     6    25    26   ar
     7    26    27   ar
     8    27    28   ar
     9    28    29   ar
    10    29    30    1
    11    30    19    1
    12    19    18    1
    13    18    17    1
    14    17     1    1
    15     1     2    1
    16     2     3    1
    17     3     4    1
    18     4     7    1
    19     7     8   am
    20     8     9    2
    21     8    10    1
    22    10    11    2
    23    11    12    1
    24    12    13    1
    25    13    14    2
    26    14    15    1
    27    15    16    2
    28     4     5    1
    29     5     6    1
    30    30    21   am
    31     6     1    1
    32    29    24   ar
    33    16     7    1
    34    16    11    1
@<TRIPOS>MOLECULE
*****
 30 34 0 0 0
SMALL
GASTEIGER

@<TRIPOS>ATOM
      1 N         139.1964  138.5226  162.2725 N.3     1  UNL1       -0.2725
      2 C         138.3062  139.6327  162.7467 C.3     1  UNL1        0.0738
      3 C         138.2256  139.9568  164.2091 C.3     1  UNL1        0.0376
      4 C         139.0353  139.1706  165.1972 C.3     1  UNL1        0.0841
      5 C         139.9256  138.0604  164.7229 C.3     1  UNL1        0.0376
      6 C         140.0061  137.7364  163.2606 C.3     1  UNL1        0.0738
      7 N         138.9547  139.4946  166.6596 N.am    1  UNL1       -0.2423
      8 C         138.0066  138.8821  167.6474 C.2     1  UNL1        0.3309
      9 O         136.9725  137.8380  167.3463 O.2     1  UNL1       -0.2501
     10 N         138.2740  139.4969  168.9892 N.am    1  UNL1       -0.1647
     11 C         139.3875  140.4895  168.8307 C.2     1  UNL1        0.0706
     12 C         140.0726  141.3943  169.8114 C.3     1  UNL1        0.0705
     13 C         141.1785  142.2978  169.3523 C.2     1  UNL1       -0.0199
     14 C         141.5992  142.2964  167.9124 C.2     1  UNL1       -0.0029
     15 C         140.9140  141.3915  166.9317 C.2     1  UNL1        0.0156
     16 C         139.8082  140.4880  167.3909 C.2     1  UNL1        0.0668
     17 C         139.2770  138.1986  160.8101 C.3     1  UNL1        0.0739
     18 C         139.5407  139.2885  159.8139 C.3     1  UNL1        0.0392
     19 C         140.9455  139.7502  159.5616 C.3     1  UNL1        0.0998
     20 O         142.6903  137.3264  159.2770 O.2     1  UNL1       -0.2705
     21 C         142.8907  138.2636  160.4310 C.2     1  UNL1        0.2739
     22 C         143.9635  137.9888  161.4427 C.3     1  UNL1        0.2900
     23 O         144.1639  138.9258  162.5967 O.3     1  UNL1       -0.4643
     24 C         143.2915  140.1377  162.7391 C.ar    1  UNL1        0.1528
     25 C         143.4919  141.0748  163.8930 C.ar    1  UNL1        0.0382
     26 C         142.6195  142.2866  164.0353 C.ar    1  UNL1        0.0032
     27 C         141.5467  142.5614  163.0236 C.ar    1  UNL1        0.0015
     28 C         141.3463  141.6244  161.8696 C.ar    1  UNL1        0.0180
     29 C         142.2187  140.4125  161.7274 C.ar    1  UNL1        0.0881
     30 N         142.0183  139.4754  160.5733 N.am    1  UNL1       -0.2529
@<TRIPOS>BOND
     1    20    21    2
     2    21    22    1
     3    22    23    1
     4    23    24    1
     5    24    25   ar
     6    25    26   ar
     7    26    27   ar
     8    27    28   ar
     9    28    29   ar
    10    29    30    1
    11    30    19    1
    12    19    18    1
    13    18    17    1
    14    17     1    1
    15     1     2    1
    16     2     3    1
    17     3     4    1
    18     4     7    1
    19     7     8   am
    20     8     9    2
    21     8    10    1
    22    10    11    2
    23    11    12    1
    24    12    13    1
    25    13    14    2
    26    14    15    1
    27    15    16    2
    28     4     5    1
    29     5     6    1
    30    30    21   am
    31     6     1    1
    32    29    24   ar
    33    16     7    1
    34    16    11    1
@<TRIPOS>MOLECULE
*****
 30 34 0 0 0
SMALL
GASTEIGER

@<TRIPOS>ATOM
      1 N         142.8444  139.7150  162.4762 N.3     1  UNL1       -0.2725
      2 C         141.4713  140.3178  162.4412 C.3     1  UNL1        0.0738
      3 C         140.6182  140.3126  163.6750 C.3     1  UNL1        0.0376
      4 C         141.1383  139.7047  164.9439 C.3     1  UNL1        0.0841
      5 C         142.5115  139.1020  164.9789 C.3     1  UNL1        0.0376
      6 C         143.3645  139.1071  163.7451 C.3     1  UNL1        0.0738
      7 N         140.2853  139.6995  166.1777 N.am    1  UNL1       -0.2423
      8 C         139.0573  138.8665  166.3971 C.2     1  UNL1        0.3309
      9 O         138.4667  137.8925  165.4212 O.2     1  UNL1       -0.2501
     10 N         138.5236  139.1786  167.7637 N.am    1  UNL1       -0.1647
     11 C         139.4217  140.2045  168.3890 C.2     1  UNL1        0.0706
     12 C         139.3887  140.8870  169.7243 C.3     1  UNL1        0.0705
     13 C         140.4446  141.8916  170.0794 C.2     1  UNL1       -0.0199
     14 C         141.5335  142.2135  169.0991 C.2     1  UNL1       -0.0029
     15 C         141.5664  141.5309  167.7638 C.2     1  UNL1        0.0156
     16 C         140.5105  140.5264  167.4088 C.2     1  UNL1        0.0668
     17 C         143.6974  139.7202  161.2424 C.3     1  UNL1        0.0739
     18 C         143.7343  140.9335  160.3613 C.3     1  UNL1        0.0392
     19 C         144.4618  142.1657  160.8116 C.3     1  UNL1        0.0998
     20 O         146.1268  141.5518  163.2305 O.2     1  UNL1       -0.2705
     21 C         144.9592  142.4870  163.3413 C.2     1  UNL1        0.2739
     22 C         144.6242  143.1153  164.6615 C.3     1  UNL1        0.2900
     23 O         143.4567  144.0504  164.7724 O.3     1  UNL1       -0.4643
     24 C         142.6242  144.3574  163.5629 C.ar    1  UNL1        0.1528
     25 C         141.4567  145.2926  163.6737 C.ar    1  UNL1        0.0382
     26 C         140.6242  145.5996  162.4643 C.ar    1  UNL1        0.0032
     27 C         140.9592  144.9713  161.1441 C.ar    1  UNL1        0.0015
     28 C         142.1267  144.0361  161.0332 C.ar    1  UNL1        0.0180
     29 C         142.9592  143.7292  162.2427 C.ar    1  UNL1        0.0881
     30 N         144.1267  142.7939  162.1319 N.am    1  UNL1       -0.2529
@<TRIPOS>BOND
     1    20    21    2
     2    21    22    1
     3    22    23    1
     4    23    24    1
     5    24    25   ar
     6    25    26   ar
     7    26    27   ar
     8    27    28   ar
     9    28    29   ar
    10    29    30    1
    11    30    19    1
    12    19    18    1
    13    18    17    1
    14    17     1    1
    15     1     2    1
    16     2     3    1
    17     3     4    1
    18     4     7    1
    19     7     8   am
    20     8     9    2
    21     8    10    1
    22    10    11    2
    23    11    12    1
    24    12    13    1
    25    13    14    2
    26    14    15    1
    27    15    16    2
    28     4     5    1
    29     5     6    1
    30    30    21   am
    31     6     1    1
    32    29    24   ar
    33    16     7    1
    34    16    11    1
