@<TRIPOS>MOLECULE
*****
 27 31 0 0 0
SMALL
GASTEIGER

@<TRIPOS>ATOM
      1 C         142.0002  144.8278  158.0832 C.3     1  UNL1        0.1352
      2 N         142.1095  144.2349  159.4568 N.ar    1  UNL1       -0.2765
      3 C         143.1473  143.2526  159.9130 C.ar    1  UNL1        0.3316
      4 O         144.2579  142.6906  159.0758 O.2     1  UNL1       -0.2463
      5 N         142.8794  142.9308  161.3534 N.ar    1  UNL1       -0.2815
      6 C         141.6762  143.7142  161.7873 C.ar    1  UNL1        0.0826
      7 C         140.9522  143.7978  163.0985 C.ar    1  UNL1        0.0350
      8 C         141.4281  142.9918  164.2706 C.ar    1  UNL1        0.0030
      9 C         140.7042  143.0754  165.5816 C.ar    1  UNL1        0.0016
     10 C         139.5044  143.9650  165.7206 C.ar    1  UNL1        0.0016
     11 C         139.0286  144.7710  164.5484 C.ar    1  UNL1        0.0191
     12 C         139.7525  144.6874  163.2374 C.ar    1  UNL1        0.0828
     13 N         139.2767  145.4934  162.0652 N.ar    1  UNL1       -0.2422
     14 C         140.0006  145.4098  160.7541 C.ar    1  UNL1        0.1175
     15 C         141.2003  144.5202  160.6152 C.ar    1  UNL1        0.0989
     16 C         143.6751  141.9906  162.2095 C.3     1  UNL1        0.0949
     17 C         144.9121  142.4752  162.9060 C.3     1  UNL1        0.0548
     18 C         145.7078  141.5351  163.7621 C.3     1  UNL1        0.1441
     19 O         145.2666  140.1104  163.9217 O.3     1  UNL1       -0.3536
     20 C         144.0297  139.6257  163.2252 C.3     1  UNL1        0.1441
     21 C         143.2340  140.5659  162.3691 C.3     1  UNL1        0.0548
     22 C         141.1800  142.2694  166.7539 C.ar    1  UNL1        0.0192
     23 C         142.1351  141.1321  166.5439 C.ar    1  UNL1        0.0031
     24 C         142.6109  140.3261  167.7160 C.ar    1  UNL1        0.0207
     25 C         142.1316  140.6574  169.0982 C.ar    1  UNL1        0.0989
     26 N         141.1764  141.7948  169.3083 N.ar    1  UNL1       -0.2423
     27 C         140.7006  142.6008  168.1360 C.ar    1  UNL1        0.0988
@<TRIPOS>BOND
     1     1     2    1
     2     2     3   ar
     3     3     4    2
     4     3     5   ar
     5     5    16    1
     6    16    17    1
     7    17    18    1
     8    18    19    1
     9    19    20    1
    10    20    21    1
    11     5     6   ar
    12     6     7   ar
    13     7     8   ar
    14     8     9   ar
    15     9    22    1
    16    22    23   ar
    17    23    24   ar
    18    24    25   ar
    19    25    26   ar
    20    26    27   ar
    21     9    10   ar
    22    10    11   ar
    23    11    12   ar
    24    12    13   ar
    25    13    14   ar
    26    14    15   ar
    27    15     2   ar
    28    21    16    1
    29    15     6   ar
    30    12     7   ar
    31    27    22   ar
@<TRIPOS>MOLECULE
*****
 27 31 0 0 0
SMALL
GASTEIGER

@<TRIPOS>ATOM
      1 C         142.2254  142.4394  171.3828 C.3     1  UNL1        0.1352
      2 N         142.0063  141.9275  169.9899 N.ar    1  UNL1       -0.2765
      3 C         142.9230  142.1332  168.8206 C.ar    1  UNL1        0.3316
      4 O         144.2199  142.8869  168.8388 O.2     1  UNL1       -0.2463
      5 N         142.3153  141.4529  167.6298 N.ar    1  UNL1       -0.2815
      6 C         141.0230  140.8268  168.0633 C.ar    1  UNL1        0.0826
      7 C         139.9955  140.0274  167.3181 C.ar    1  UNL1        0.0350
      8 C         140.1865  139.7341  165.8596 C.ar    1  UNL1        0.0030
      9 C         139.1590  138.9347  165.1145 C.ar    1  UNL1        0.0016
     10 C         137.9404  138.4287  165.8280 C.ar    1  UNL1        0.0016
     11 C         137.7494  138.7220  167.2866 C.ar    1  UNL1        0.0191
     12 C         138.7769  139.5213  168.0316 C.ar    1  UNL1        0.0828
     13 N         138.5860  139.8147  169.4903 N.ar    1  UNL1       -0.2422
     14 C         139.6135  140.6141  170.2353 C.ar    1  UNL1        0.1175
     15 C         140.8320  141.1201  169.5218 C.ar    1  UNL1        0.0989
     16 C         142.8977  141.4068  166.2483 C.3     1  UNL1        0.0949
     17 C         142.8831  142.6348  165.3870 C.3     1  UNL1        0.0548
     18 C         143.4655  142.5888  164.0054 C.3     1  UNL1        0.1441
     19 O         144.0624  141.3148  163.4852 O.3     1  UNL1       -0.3536
     20 C         144.0769  140.0868  164.3465 C.3     1  UNL1        0.1441
     21 C         143.4946  140.1329  165.7280 C.3     1  UNL1        0.0548
     22 C         139.3500  138.6413  163.6559 C.ar    1  UNL1        0.0192
     23 C         138.2875  139.0239  162.6686 C.ar    1  UNL1        0.0031
     24 C         138.4784  138.7306  161.2100 C.ar    1  UNL1        0.0207
     25 C         139.7319  138.0547  160.7387 C.ar    1  UNL1        0.0989
     26 N         140.7944  137.6721  161.7260 N.ar    1  UNL1       -0.2423
     27 C         140.6034  137.9655  163.1846 C.ar    1  UNL1        0.0988
@<TRIPOS>BOND
     1     1     2    1
     2     2     3   ar
     3     3     4    2
     4     3     5   ar
     5     5    16    1
     6    16    17    1
     7    17    18    1
     8    18    19    1
     9    19    20    1
    10    20    21    1
    11     5     6   ar
    12     6     7   ar
    13     7     8   ar
    14     8     9   ar
    15     9    22    1
    16    22    23   ar
    17    23    24   ar
    18    24    25   ar
    19    25    26   ar
    20    26    27   ar
    21     9    10   ar
    22    10    11   ar
    23    11    12   ar
    24    12    13   ar
    25    13    14   ar
    26    14    15   ar
    27    15     2   ar
    28    21    16    1
    29    15     6   ar
    30    12     7   ar
    31    27    22   ar
@<TRIPOS>MOLECULE
*****
 27 31 0 0 0
SMALL
GASTEIGER

@<TRIPOS>ATOM
      1 C         140.1605  140.1108  170.7023 C.3     1  UNL1        0.1352
      2 N         140.3004  140.3646  169.2305 N.ar    1  UNL1       -0.2765
      3 C         139.3629  139.8887  168.1606 C.ar    1  UNL1        0.3316
      4 O         138.1208  139.0754  168.3747 O.2     1  UNL1       -0.2463
      5 N         139.8856  140.3689  166.8392 N.ar    1  UNL1       -0.2815
      6 C         141.1461  141.1415  167.0923 C.ar    1  UNL1        0.0826
      7 C         142.0936  141.8472  166.1680 C.ar    1  UNL1        0.0350
      8 C         141.8372  141.8498  164.6901 C.ar    1  UNL1        0.0030
      9 C         142.7847  142.5554  163.7658 C.ar    1  UNL1        0.0016
     10 C         143.9885  143.2584  164.3194 C.ar    1  UNL1        0.0016
     11 C         144.2449  143.2558  165.7973 C.ar    1  UNL1        0.0191
     12 C         143.2975  142.5502  166.7216 C.ar    1  UNL1        0.0828
     13 N         143.5538  142.5475  168.1995 N.ar    1  UNL1       -0.2422
     14 C         142.6064  141.8419  169.1238 C.ar    1  UNL1        0.1175
     15 C         141.4025  141.1389  168.5702 C.ar    1  UNL1        0.0989
     16 C         139.2580  140.1201  165.4997 C.3     1  UNL1        0.0949
     17 C         139.5207  138.8328  164.7759 C.3     1  UNL1        0.0548
     18 C         138.8931  138.5839  163.4364 C.3     1  UNL1        0.1441
     19 O         138.0027  139.6223  162.8208 O.3     1  UNL1       -0.3536
     20 C         137.7399  140.9096  163.5447 C.3     1  UNL1        0.1441
     21 C         138.3676  141.1584  164.8841 C.3     1  UNL1        0.0548
     22 C         142.5283  142.5580  162.2878 C.ar    1  UNL1        0.0192
     23 C         141.6276  141.5233  161.6810 C.ar    1  UNL1        0.0031
     24 C         141.3712  141.5259  160.2031 C.ar    1  UNL1        0.0207
     25 C         142.0155  142.5632  159.3319 C.ar    1  UNL1        0.0989
     26 N         142.9162  143.5979  159.9387 N.ar    1  UNL1       -0.2423
     27 C         143.1726  143.5953  161.4167 C.ar    1  UNL1        0.0988
@<TRIPOS>BOND
     1     1     2    1
     2     2     3   ar
     3     3     4    2
     4     3     5   ar
     5     5    16    1
     6    16    17    1
     7    17    18    1
     8    18    19    1
     9    19    20    1
    10    20    21    1
    11     5     6   ar
    12     6     7   ar
    13     7     8   ar
    14     8     9   ar
    15     9    22    1
    16    22    23   ar
    17    23    24   ar
    18    24    25   ar
    19    25    26   ar
    20    26    27   ar
    21     9    10   ar
    22    10    11   ar
    23    11    12   ar
    24    12    13   ar
    25    13    14   ar
    26    14    15   ar
    27    15     2   ar
    28    21    16    1
    29    15     6   ar
    30    12     7   ar
    31    27    22   ar
@<TRIPOS>MOLECULE
*****
 27 31 0 0 0
SMALL
GASTEIGER

@<TRIPOS>ATOM
      1 C         139.6599  142.8776  158.9928 C.3     1  UNL1        0.1352
      2 N         139.9930  142.4417  160.3890 N.ar    1  UNL1       -0.2765
      3 C         139.2931  141.3679  161.1681 C.ar    1  UNL1        0.3316
      4 O         138.1371  140.5413  160.6879 O.2     1  UNL1       -0.2463
      5 N         139.9522  141.2657  162.5117 N.ar    1  UNL1       -0.2815
      6 C         141.0593  142.2764  162.5629 C.ar    1  UNL1        0.0826
      7 C         142.0478  142.6287  163.6348 C.ar    1  UNL1        0.0350
      8 C         142.0225  141.9019  164.9467 C.ar    1  UNL1        0.0030
      9 C         143.0110  142.2543  166.0184 C.ar    1  UNL1        0.0016
     10 C         144.0247  143.3335  165.7783 C.ar    1  UNL1        0.0016
     11 C         144.0500  144.0603  164.4665 C.ar    1  UNL1        0.0191
     12 C         143.0616  143.7080  163.3947 C.ar    1  UNL1        0.0828
     13 N         143.0868  144.4348  162.0828 N.ar    1  UNL1       -0.2422
     14 C         142.0984  144.0824  161.0110 C.ar    1  UNL1        0.1175
     15 C         141.0846  143.0032  161.2511 C.ar    1  UNL1        0.0989
     16 C         139.5709  140.3190  163.6110 C.3     1  UNL1        0.0949
     17 C         140.2460  138.9838  163.7186 C.3     1  UNL1        0.0548
     18 C         139.8647  138.0371  164.8179 C.3     1  UNL1        0.1441
     19 O         138.8085  138.4256  165.8096 O.3     1  UNL1       -0.3536
     20 C         138.1335  139.7609  165.7020 C.3     1  UNL1        0.1441
     21 C         138.5147  140.7075  164.6027 C.3     1  UNL1        0.0548
     22 C         142.9857  141.5275  167.3304 C.ar    1  UNL1        0.0192
     23 C         143.1986  142.2813  168.6096 C.ar    1  UNL1        0.0031
     24 C         143.1734  141.5545  169.9215 C.ar    1  UNL1        0.0207
     25 C         142.9352  140.0739  169.9543 C.ar    1  UNL1        0.0989
     26 N         142.7223  139.3200  168.6750 N.ar    1  UNL1       -0.2423
     27 C         142.7476  140.0469  167.3631 C.ar    1  UNL1        0.0988
@<TRIPOS>BOND
     1     1     2    1
     2     2     3   ar
     3     3     4    2
     4     3     5   ar
     5     5    16    1
     6    16    17    1
     7    17    18    1
     8    18    19    1
     9    19    20    1
    10    20    21    1
    11     5     6   ar
    12     6     7   ar
    13     7     8   ar
    14     8     9   ar
    15     9    22    1
    16    22    23   ar
    17    23    24   ar
    18    24    25   ar
    19    25    26   ar
    20    26    27   ar
    21     9    10   ar
    22    10    11   ar
    23    11    12   ar
    24    12    13   ar
    25    13    14   ar
    26    14    15   ar
    27    15     2   ar
    28    21    16    1
    29    15     6   ar
    30    12     7   ar
    31    27    22   ar
@<TRIPOS>MOLECULE
*****
 27 31 0 0 0
SMALL
GASTEIGER

@<TRIPOS>ATOM
      1 C         140.8103  138.5060  158.4885 C.3     1  UNL1        0.1352
      2 N         141.1560  138.9600  159.8758 N.ar    1  UNL1       -0.2765
      3 C         142.3799  139.7315  160.2717 C.ar    1  UNL1        0.3316
      4 O         143.4730  140.1847  159.3498 O.2     1  UNL1       -0.2463
      5 N         142.3188  139.9704  161.7513 N.ar    1  UNL1       -0.2815
      6 C         141.0572  139.3464  162.2698 C.ar    1  UNL1        0.0826
      7 C         140.4699  139.2662  163.6478 C.ar    1  UNL1        0.0350
      8 C         141.1886  139.8907  164.8069 C.ar    1  UNL1        0.0030
      9 C         140.6013  139.8105  166.1847 C.ar    1  UNL1        0.0016
     10 C         139.2953  139.1058  166.4036 C.ar    1  UNL1        0.0016
     11 C         138.5766  138.4813  165.2445 C.ar    1  UNL1        0.0191
     12 C         139.1639  138.5615  163.8666 C.ar    1  UNL1        0.0828
     13 N         138.4453  137.9370  162.7074 N.ar    1  UNL1       -0.2422
     14 C         139.0326  138.0173  161.3296 C.ar    1  UNL1        0.1175
     15 C         140.3385  138.7219  161.1107 C.ar    1  UNL1        0.0989
     16 C         143.3401  140.7043  162.5688 C.3     1  UNL1        0.0949
     17 C         144.5082  139.9642  163.1501 C.3     1  UNL1        0.0548
     18 C         145.5295  140.6981  163.9676 C.3     1  UNL1        0.1441
     19 O         145.3827  142.1721  164.2039 O.3     1  UNL1       -0.3536
     20 C         144.2146  142.9122  163.6226 C.3     1  UNL1        0.1441
     21 C         143.1933  142.1783  162.8051 C.3     1  UNL1        0.0548
     22 C         141.3200  140.4350  167.3439 C.ar    1  UNL1        0.0192
     23 C         141.1022  141.8830  167.6693 C.ar    1  UNL1        0.0031
     24 C         141.8209  142.5075  168.8284 C.ar    1  UNL1        0.0207
     25 C         142.7572  141.6840  169.6622 C.ar    1  UNL1        0.0989
     26 N         142.9750  140.2360  169.3368 N.ar    1  UNL1       -0.2423
     27 C         142.2563  139.6115  168.1776 C.ar    1  UNL1        0.0988
@<TRIPOS>BOND
     1     1     2    1
     2     2     3   ar
     3     3     4    2
     4     3     5   ar
     5     5    16    1
     6    16    17    1
     7    17    18    1
     8    18    19    1
     9    19    20    1
    10    20    21    1
    11     5     6   ar
    12     6     7   ar
    13     7     8   ar
    14     8     9   ar
    15     9    22    1
    16    22    23   ar
    17    23    24   ar
    18    24    25   ar
    19    25    26   ar
    20    26    27   ar
    21     9    10   ar
    22    10    11   ar
    23    11    12   ar
    24    12    13   ar
    25    13    14   ar
    26    14    15   ar
    27    15     2   ar
    28    21    16    1
    29    15     6   ar
    30    12     7   ar
    31    27    22   ar
@<TRIPOS>MOLECULE
*****
 27 31 0 0 0
SMALL
GASTEIGER

@<TRIPOS>ATOM
      1 C         141.1151  141.9960  170.7188 C.3     1  UNL1        0.1352
      2 N         141.3725  141.5496  169.3100 N.ar    1  UNL1       -0.2765
      3 C         142.5724  141.8980  168.4800 C.ar    1  UNL1        0.3316
      4 O         143.7256  142.7539  168.9130 O.2     1  UNL1       -0.2463
      5 N         142.4166  141.2402  167.1410 N.ar    1  UNL1       -0.2815
      6 C         141.1204  140.4853  167.1435 C.ar    1  UNL1        0.0826
      7 C         140.4443  139.6484  166.0981 C.ar    1  UNL1        0.0350
      8 C         141.0896  139.4571  164.7576 C.ar    1  UNL1        0.0030
      9 C         140.4135  138.6203  163.7124 C.ar    1  UNL1        0.0016
     10 C         139.0922  137.9747  164.0077 C.ar    1  UNL1        0.0016
     11 C         138.4469  138.1659  165.3482 C.ar    1  UNL1        0.0191
     12 C         139.1230  139.0027  166.3934 C.ar    1  UNL1        0.0828
     13 N         138.4777  139.1940  167.7340 N.ar    1  UNL1       -0.2422
     14 C         139.1538  140.0309  168.7792 C.ar    1  UNL1        0.1175
     15 C         140.4751  140.6765  168.4840 C.ar    1  UNL1        0.0989
     16 C         143.3866  141.3228  165.9999 C.3     1  UNL1        0.0949
     17 C         143.7445  142.6569  165.4148 C.3     1  UNL1        0.0548
     18 C         144.7145  142.7395  164.2737 C.3     1  UNL1        0.1441
     19 O         145.3267  141.4881  163.7176 O.3     1  UNL1       -0.3536
     20 C         144.9688  140.1540  164.3026 C.3     1  UNL1        0.1441
     21 C         143.9988  140.0714  165.4437 C.3     1  UNL1        0.0548
     22 C         141.0588  138.4290  162.3718 C.ar    1  UNL1        0.0192
     23 C         142.5010  138.0259  162.2843 C.ar    1  UNL1        0.0031
     24 C         143.1463  137.8346  160.9438 C.ar    1  UNL1        0.0207
     25 C         142.3494  138.0465  159.6907 C.ar    1  UNL1        0.0989
     26 N         140.9072  138.4496  159.7782 N.ar    1  UNL1       -0.2423
     27 C         140.2619  138.6409  161.1188 C.ar    1  UNL1        0.0988
@<TRIPOS>BOND
     1     1     2    1
     2     2     3   ar
     3     3     4    2
     4     3     5   ar
     5     5    16    1
     6    16    17    1
     7    17    18    1
     8    18    19    1
     9    19    20    1
    10    20    21    1
    11     5     6   ar
    12     6     7   ar
    13     7     8   ar
    14     8     9   ar
    15     9    22    1
    16    22    23   ar
    17    23    24   ar
    18    24    25   ar
    19    25    26   ar
    20    26    27   ar
    21     9    10   ar
    22    10    11   ar
    23    11    12   ar
    24    12    13   ar
    25    13    14   ar
    26    14    15   ar
    27    15     2   ar
    28    21    16    1
    29    15     6   ar
    30    12     7   ar
    31    27    22   ar
@<TRIPOS>MOLECULE
*****
 27 31 0 0 0
SMALL
GASTEIGER

@<TRIPOS>ATOM
      1 C         139.2806  139.4918  159.0189 C.3     1  UNL1        0.1352
      2 N         139.5392  140.0589  160.3833 N.ar    1  UNL1       -0.2765
      3 C         139.0830  141.3978  160.8826 C.ar    1  UNL1        0.3316
      4 O         138.2880  142.4047  160.1052 O.2     1  UNL1       -0.2463
      5 N         139.5613  141.5531  162.2958 N.ar    1  UNL1       -0.2815
      6 C         140.3131  140.3102  162.6699 C.ar    1  UNL1        0.0826
      7 C         141.0084  139.9000  163.9342 C.ar    1  UNL1        0.0350
      8 C         141.0220  140.8234  165.1161 C.ar    1  UNL1        0.0030
      9 C         141.7173  140.4132  166.3803 C.ar    1  UNL1        0.0016
     10 C         142.3989  139.0795  166.4626 C.ar    1  UNL1        0.0016
     11 C         142.3853  138.1561  165.2806 C.ar    1  UNL1        0.0191
     12 C         141.6900  138.5663  164.0164 C.ar    1  UNL1        0.0828
     13 N         141.6764  137.6429  162.8344 N.ar    1  UNL1       -0.2422
     14 C         140.9811  138.0531  161.5702 C.ar    1  UNL1        0.1175
     15 C         140.2995  139.3868  161.4879 C.ar    1  UNL1        0.0989
     16 C         139.3286  142.7424  163.1797 C.3     1  UNL1        0.0949
     17 C         140.3956  143.7863  163.3287 C.3     1  UNL1        0.0548
     18 C         140.1629  144.9756  164.2126 C.3     1  UNL1        0.1441
     19 O         138.8634  145.1212  164.9475 O.3     1  UNL1       -0.3536
     20 C         137.7965  144.0773  164.7986 C.3     1  UNL1        0.1441
     21 C         138.0292  142.8880  163.9146 C.3     1  UNL1        0.0548
     22 C         141.7310  141.3366  167.5624 C.ar    1  UNL1        0.0192
     23 C         142.9885  141.5149  168.3603 C.ar    1  UNL1        0.0031
     24 C         143.0023  142.4383  169.5423 C.ar    1  UNL1        0.0207
     25 C         141.7583  143.1835  169.9264 C.ar    1  UNL1        0.0989
     26 N         140.5007  143.0052  169.1285 N.ar    1  UNL1       -0.2423
     27 C         140.4871  142.0817  167.9464 C.ar    1  UNL1        0.0988
@<TRIPOS>BOND
     1     1     2    1
     2     2     3   ar
     3     3     4    2
     4     3     5   ar
     5     5    16    1
     6    16    17    1
     7    17    18    1
     8    18    19    1
     9    19    20    1
    10    20    21    1
    11     5     6   ar
    12     6     7   ar
    13     7     8   ar
    14     8     9   ar
    15     9    22    1
    16    22    23   ar
    17    23    24   ar
    18    24    25   ar
    19    25    26   ar
    20    26    27   ar
    21     9    10   ar
    22    10    11   ar
    23    11    12   ar
    24    12    13   ar
    25    13    14   ar
    26    14    15   ar
    27    15     2   ar
    28    21    16    1
    29    15     6   ar
    30    12     7   ar
    31    27    22   ar
@<TRIPOS>MOLECULE
*****
 27 31 0 0 0
SMALL
GASTEIGER

@<TRIPOS>ATOM
      1 C         141.8503  138.6433  158.7957 C.3     1  UNL1        0.1352
      2 N         141.6676  139.1101  160.2096 N.ar    1  UNL1       -0.2765
      3 C         140.4999  138.7971  161.0975 C.ar    1  UNL1        0.3316
      4 O         139.3098  137.9623  160.7276 O.2     1  UNL1       -0.2463
      5 N         140.7313  139.4654  162.4204 N.ar    1  UNL1       -0.2815
      6 C         142.0420  140.1914  162.3499 C.ar    1  UNL1        0.0826
      7 C         142.7833  141.0241  163.3535 C.ar    1  UNL1        0.0350
      8 C         142.2046  141.2437  164.7198 C.ar    1  UNL1        0.0030
      9 C         142.9459  142.0763  165.7233 C.ar    1  UNL1        0.0016
     10 C         144.2660  142.6894  165.3605 C.ar    1  UNL1        0.0016
     11 C         144.8446  142.4699  163.9941 C.ar    1  UNL1        0.0191
     12 C         144.1033  141.6372  162.9906 C.ar    1  UNL1        0.0828
     13 N         144.6820  141.4176  161.6242 N.ar    1  UNL1       -0.2422
     14 C         143.9407  140.5849  160.6208 C.ar    1  UNL1        0.1175
     15 C         142.6207  139.9718  160.9836 C.ar    1  UNL1        0.0989
     16 C         139.8132  139.4163  163.6055 C.3     1  UNL1        0.0949
     17 C         139.0083  140.6250  163.9812 C.3     1  UNL1        0.0548
     18 C         138.0901  140.5759  165.1664 C.3     1  UNL1        0.1441
     19 O         137.9769  139.3182  165.9758 O.3     1  UNL1       -0.3536
     20 C         138.7818  138.1094  165.6001 C.3     1  UNL1        0.1441
     21 C         139.6999  138.1586  164.4150 C.3     1  UNL1        0.0548
     22 C         142.3672  142.2959  167.0897 C.ar    1  UNL1        0.0192
     23 C         140.8913  142.5071  167.2540 C.ar    1  UNL1        0.0031
     24 C         140.3126  142.7267  168.6203 C.ar    1  UNL1        0.0207
     25 C         141.2098  142.7351  169.8224 C.ar    1  UNL1        0.0989
     26 N         142.6858  142.5239  169.6581 N.ar    1  UNL1       -0.2423
     27 C         143.2645  142.3043  168.2917 C.ar    1  UNL1        0.0988
@<TRIPOS>BOND
     1     1     2    1
     2     2     3   ar
     3     3     4    2
     4     3     5   ar
     5     5    16    1
     6    16    17    1
     7    17    18    1
     8    18    19    1
     9    19    20    1
    10    20    21    1
    11     5     6   ar
    12     6     7   ar
    13     7     8   ar
    14     8     9   ar
    15     9    22    1
    16    22    23   ar
    17    23    24   ar
    18    24    25   ar
    19    25    26   ar
    20    26    27   ar
    21     9    10   ar
    22    10    11   ar
    23    11    12   ar
    24    12    13   ar
    25    13    14   ar
    26    14    15   ar
    27    15     2   ar
    28    21    16    1
    29    15     6   ar
    30    12     7   ar
    31    27    22   ar
@<TRIPOS>MOLECULE
*****
 27 31 0 0 0
SMALL
GASTEIGER

@<TRIPOS>ATOM
      1 C         140.0805  140.6711  158.6228 C.3     1  UNL1        0.1352
      2 N         140.4282  140.7935  160.0769 N.ar    1  UNL1       -0.2765
      3 C         141.4182  139.9473  160.8210 C.ar    1  UNL1        0.3316
      4 O         142.2344  138.8300  160.2418 O.2     1  UNL1       -0.2463
      5 N         141.4487  140.4144  162.2461 N.ar    1  UNL1       -0.2815
      6 C         140.4775  141.5494  162.3827 C.ar    1  UNL1        0.0826
      7 C         140.0860  142.3998  163.5547 C.ar    1  UNL1        0.0350
      8 C         140.7168  142.1655  164.8953 C.ar    1  UNL1        0.0030
      9 C         140.3253  143.0160  166.0672 C.ar    1  UNL1        0.0016
     10 C         139.3030  144.1007  165.8985 C.ar    1  UNL1        0.0016
     11 C         138.6723  144.3350  164.5579 C.ar    1  UNL1        0.0191
     12 C         139.0638  143.4846  163.3860 C.ar    1  UNL1        0.0828
     13 N         138.4331  143.7188  162.0453 N.ar    1  UNL1       -0.2422
     14 C         138.8246  142.8684  160.8734 C.ar    1  UNL1        0.1175
     15 C         139.8468  141.7837  161.0421 C.ar    1  UNL1        0.0989
     16 C         142.3007  139.8464  163.3421 C.3     1  UNL1        0.0949
     17 C         143.7246  140.2935  163.4933 C.3     1  UNL1        0.0548
     18 C         144.5767  139.7254  164.5893 C.3     1  UNL1        0.1441
     19 O         144.0050  138.7103  165.5341 O.3     1  UNL1       -0.3536
     20 C         142.5811  138.2632  165.3830 C.3     1  UNL1        0.1441
     21 C         141.7291  138.8313  164.2869 C.3     1  UNL1        0.0548
     22 C         140.9560  142.7817  167.4079 C.ar    1  UNL1        0.0192
     23 C         140.3004  143.3125  168.6482 C.ar    1  UNL1        0.0031
     24 C         140.9310  143.0783  169.9889 C.ar    1  UNL1        0.0207
     25 C         142.2174  142.3132  170.0892 C.ar    1  UNL1        0.0989
     26 N         142.8730  141.7824  168.8489 N.ar    1  UNL1       -0.2423
     27 C         142.2423  142.0166  167.5082 C.ar    1  UNL1        0.0988
@<TRIPOS>BOND
     1     1     2    1
     2     2     3   ar
     3     3     4    2
     4     3     5   ar
     5     5    16    1
     6    16    17    1
     7    17    18    1
     8    18    19    1
     9    19    20    1
    10    20    21    1
    11     5     6   ar
    12     6     7   ar
    13     7     8   ar
    14     8     9   ar
    15     9    22    1
    16    22    23   ar
    17    23    24   ar
    18    24    25   ar
    19    25    26   ar
    20    26    27   ar
    21     9    10   ar
    22    10    11   ar
    23    11    12   ar
    24    12    13   ar
    25    13    14   ar
    26    14    15   ar
    27    15     2   ar
    28    21    16    1
    29    15     6   ar
    30    12     7   ar
    31    27    22   ar
