@<TRIPOS>MOLECULE
*****
 30 34 0 0 0
SMALL
GASTEIGER

@<TRIPOS>ATOM
      1 C         140.0133  142.3751  164.7473 C.2     1  UNL1       -0.0029
      2 C         138.9864  143.3724  164.2987 C.2     1  UNL1        0.0192
      3 C         139.2699  144.2653  163.1272 C.2     1  UNL1        0.1207
      4 N         138.4568  145.3353  162.4610 N.2     1  UNL1       -0.0381
      5 N         139.2646  145.8924  161.3265 N.2     1  UNL1        0.0756
      6 C         140.5768  145.1667  161.2915 C.2     1  UNL1        0.3335
      7 C         140.5801  144.1610  162.4045 C.3     1  UNL1        0.1733
      8 C         141.6069  143.1638  162.8531 C.2     1  UNL1       -0.0125
      9 C         141.3235  142.2709  164.0246 C.2     1  UNL1       -0.0258
     10 C         137.7821  138.1199  166.7260 C.3     1  UNL1        0.0521
     11 C         138.6142  139.3545  166.9081 C.ar    1  UNL1        0.0590
     12 C         138.8977  140.2475  165.7367 C.ar    1  UNL1        0.0147
     13 C         139.7298  141.4821  165.9188 C.ar    1  UNL1        0.0021
     14 C         140.2785  141.8239  167.2724 C.ar    1  UNL1        0.0147
     15 C         139.9951  140.9309  168.4438 C.ar    1  UNL1        0.0590
     16 C         140.5438  141.2727  169.7975 C.3     1  UNL1        0.0521
     17 N         139.1629  139.6962  168.2617 N.ar    1  UNL1       -0.2540
     18 C         142.3503  141.2737  164.4732 C.3     1  UNL1        0.0221
     19 C         142.8294  139.8554  164.5679 C.3     1  UNL1        0.0047
     20 C         143.6499  140.9650  165.1557 C.3     1  UNL1        0.0047
     21 N         141.6903  145.4048  160.3151 N.pl3   1  UNL1       -0.2209
     22 H         142.4144  146.0335  160.5379 H       1  UNL1        0.2920
     23 C         141.7005  144.6851  158.9990 C.3     1  UNL1        0.1917
     24 C         142.5812  143.4862  158.8068 C.3     1  UNL1        0.0664
     25 C         142.5915  142.7664  157.4908 C.3     1  UNL1        0.0729
     26 N         141.7209  143.2456  156.3671 N.3     1  UNL1       -0.2950
     27 C         140.8403  144.4445  156.5594 C.3     1  UNL1        0.1085
     28 C         140.8301  145.1642  157.8754 C.3     1  UNL1        0.2186
     29 F         139.9494  146.3631  158.0677 F       1  UNL1       -0.2315
     30 H         141.1097  142.4686  156.1161 H       1  UNL1        0.1233
@<TRIPOS>BOND
     1    10    11    1
     2    11    12   ar
     3    12    13   ar
     4    13     1    1
     5     1     2    2
     6     2     3    1
     7     3     4    2
     8     4     5    1
     9     5     6    2
    10     6    21    1
    11    23    21    1
    12    23    24    1
    13    24    25    1
    14    25    26    1
    15    26    27    1
    16    27    28    1
    17    28    29    1
    18     6     7    1
    19     7     8    1
    20     8     9    2
    21     9    18    1
    22    18    19    1
    23    19    20    1
    24    13    14   ar
    25    14    15   ar
    26    15    16    1
    27    15    17   ar
    28    17    11   ar
    29     9     1    1
    30    20    18    1
    31     7     3    1
    32    28    23    1
    33    21    22    1
    34    26    30    1
@<TRIPOS>MOLECULE
*****
 30 34 0 0 0
SMALL
GASTEIGER

@<TRIPOS>ATOM
      1 C         140.0018  142.3620  164.7578 C.2     1  UNL1       -0.0029
      2 C         138.9732  143.3539  164.3014 C.2     1  UNL1        0.0192
      3 C         139.2607  144.2480  163.1318 C.2     1  UNL1        0.1207
      4 N         138.4471  145.3137  162.4594 N.2     1  UNL1       -0.0381
      5 N         139.2602  145.8746  161.3306 N.2     1  UNL1        0.0756
      6 C         140.5764  145.1555  161.3054 C.2     1  UNL1        0.3335
      7 C         140.5767  144.1502  162.4187 C.3     1  UNL1        0.1733
      8 C         141.6052  143.1583  162.8751 C.2     1  UNL1       -0.0125
      9 C         141.3177  142.2643  164.0447 C.2     1  UNL1       -0.0258
     10 C         140.5011  141.2635  169.8120 C.3     1  UNL1        0.0521
     11 C         139.9640  140.9186  168.4546 C.ar    1  UNL1        0.0590
     12 C         140.2514  141.8127  167.2849 C.ar    1  UNL1        0.0147
     13 C         139.7144  141.4679  165.9275 C.ar    1  UNL1        0.0021
     14 C         138.8898  140.2290  165.7397 C.ar    1  UNL1        0.0147
     15 C         138.6024  139.3349  166.9093 C.ar    1  UNL1        0.0590
     16 C         137.7778  138.0960  166.7213 C.3     1  UNL1        0.0521
     17 N         139.1395  139.6797  168.2667 N.ar    1  UNL1       -0.2540
     18 C         142.3464  141.2724  164.5011 C.3     1  UNL1        0.0221
     19 C         142.8068  139.8523  164.6468 C.3     1  UNL1        0.0047
     20 C         143.6676  140.9747  165.1460 C.3     1  UNL1        0.0047
     21 N         141.6957  145.3991  160.3371 N.pl3   1  UNL1       -0.2209
     22 H         142.4121  146.0355  160.5627 H       1  UNL1        0.2920
     23 C         141.7236  144.6729  159.0248 C.3     1  UNL1        0.1917
     24 C         142.6042  143.4711  158.8514 C.3     1  UNL1        0.0664
     25 C         142.6321  142.7448  157.5392 C.3     1  UNL1        0.0729
     26 N         141.7793  143.2205  156.4005 N.3     1  UNL1       -0.2950
     27 C         140.8987  144.4223  156.5741 C.3     1  UNL1        0.1085
     28 C         140.8708  145.1485  157.8862 C.3     1  UNL1        0.2186
     29 F         139.9902  146.3503  158.0598 F       1  UNL1       -0.2315
     30 H         141.1700  142.4436  156.1444 H       1  UNL1        0.1233
@<TRIPOS>BOND
     1    10    11    1
     2    11    12   ar
     3    12    13   ar
     4    13     1    1
     5     1     2    2
     6     2     3    1
     7     3     4    2
     8     4     5    1
     9     5     6    2
    10     6    21    1
    11    23    21    1
    12    23    24    1
    13    24    25    1
    14    25    26    1
    15    26    27    1
    16    27    28    1
    17    28    29    1
    18     6     7    1
    19     7     8    1
    20     8     9    2
    21     9    18    1
    22    18    19    1
    23    19    20    1
    24    13    14   ar
    25    14    15   ar
    26    15    16    1
    27    15    17   ar
    28    17    11   ar
    29     9     1    1
    30    20    18    1
    31     7     3    1
    32    28    23    1
    33    21    22    1
    34    26    30    1
@<TRIPOS>MOLECULE
*****
 30 34 0 0 0
SMALL
GASTEIGER

@<TRIPOS>ATOM
      1 C         139.9562  142.1845  164.8390 C.2     1  UNL1       -0.0029
      2 C         138.9769  143.2256  164.3836 C.2     1  UNL1        0.0192
      3 C         139.3002  144.0943  163.2044 C.2     1  UNL1        0.1207
      4 N         138.5375  145.1963  162.5305 N.2     1  UNL1       -0.0381
      5 N         139.3686  145.7050  161.3902 N.2     1  UNL1        0.0756
      6 C         140.6449  144.9175  161.3592 C.2     1  UNL1        0.3335
      7 C         140.6026  143.9221  162.4805 C.3     1  UNL1        0.1733
      8 C         141.5818  142.8810  162.9359 C.2     1  UNL1       -0.0125
      9 C         141.2585  142.0122  164.1151 C.2     1  UNL1       -0.0258
     10 C         140.3452  141.1666  169.9197 C.3     1  UNL1        0.0521
     11 C         139.8275  140.8067  168.5586 C.ar    1  UNL1        0.0590
     12 C         140.1507  141.6755  167.3794 C.ar    1  UNL1        0.0147
     13 C         139.6329  141.3156  166.0183 C.ar    1  UNL1        0.0021
     14 C         138.7919  140.0869  165.8366 C.ar    1  UNL1        0.0147
     15 C         138.4687  139.2181  167.0159 C.ar    1  UNL1        0.0590
     16 C         137.6277  137.9894  166.8340 C.3     1  UNL1        0.0521
     17 N         138.9865  139.5780  168.3769 N.ar    1  UNL1       -0.2540
     18 C         142.2378  140.9711  164.5705 C.3     1  UNL1        0.0221
     19 C         143.3239  140.5303  165.5065 C.3     1  UNL1        0.0047
     20 C         142.8477  139.6087  164.4230 C.3     1  UNL1        0.0047
     21 N         141.7665  145.0945  160.3791 N.pl3   1  UNL1       -0.2209
     22 H         142.2971  145.9238  160.3826 H       1  UNL1        0.2920
     23 C         142.0798  144.0079  159.3935 C.3     1  UNL1        0.1917
     24 C         141.2093  143.8158  158.1872 C.3     1  UNL1        0.0664
     25 C         141.5225  142.7293  157.2016 C.3     1  UNL1        0.0729
     26 N         142.7062  141.8348  157.4225 N.3     1  UNL1       -0.2950
     27 C         143.5767  142.0269  158.6289 C.3     1  UNL1        0.1085
     28 C         143.2634  143.1134  159.6144 C.3     1  UNL1        0.2186
     29 F         144.1339  143.3055  160.8208 F       1  UNL1       -0.2315
     30 H         143.3086  141.9364  156.6057 H       1  UNL1        0.1233
@<TRIPOS>BOND
     1    10    11    1
     2    11    12   ar
     3    12    13   ar
     4    13     1    1
     5     1     2    2
     6     2     3    1
     7     3     4    2
     8     4     5    1
     9     5     6    2
    10     6    21    1
    11    23    21    1
    12    23    24    1
    13    24    25    1
    14    25    26    1
    15    26    27    1
    16    27    28    1
    17    28    29    1
    18     6     7    1
    19     7     8    1
    20     8     9    2
    21     9    18    1
    22    18    19    1
    23    19    20    1
    24    13    14   ar
    25    14    15   ar
    26    15    16    1
    27    15    17   ar
    28    17    11   ar
    29     9     1    1
    30    20    18    1
    31     7     3    1
    32    28    23    1
    33    21    22    1
    34    26    30    1
@<TRIPOS>MOLECULE
*****
 30 34 0 0 0
SMALL
GASTEIGER

@<TRIPOS>ATOM
      1 C         140.8042  142.2604  166.0052 C.2     1  UNL1       -0.0029
      2 C         139.8817  143.4147  165.7470 C.2     1  UNL1        0.0192
      3 C         139.4676  143.7444  164.3435 C.2     1  UNL1        0.1207
      4 N         138.5765  144.8140  163.7850 N.2     1  UNL1       -0.0381
      5 N         138.5343  144.6504  162.2945 N.2     1  UNL1        0.0756
      6 C         139.3992  143.4798  161.9319 C.2     1  UNL1        0.3335
      7 C         139.9761  142.9198  163.1983 C.3     1  UNL1        0.1733
      8 C         140.8986  141.7656  163.4565 C.2     1  UNL1       -0.0125
      9 C         141.3127  141.4360  164.8600 C.2     1  UNL1       -0.0258
     10 C         139.8269  139.9668  170.5642 C.3     1  UNL1        0.0521
     11 C         140.7297  140.7839  169.6883 C.ar    1  UNL1        0.0590
     12 C         140.3156  141.1136  168.2848 C.ar    1  UNL1        0.0147
     13 C         141.2184  141.9308  167.4088 C.ar    1  UNL1        0.0021
     14 C         142.5352  142.4183  167.9364 C.ar    1  UNL1        0.0147
     15 C         142.9492  142.0886  169.3399 C.ar    1  UNL1        0.0590
     16 C         144.2661  142.5761  169.8674 C.3     1  UNL1        0.0521
     17 N         142.0465  141.2714  170.2158 N.ar    1  UNL1       -0.2540
     18 C         142.2353  140.2817  165.1182 C.3     1  UNL1        0.0221
     19 C         143.6118  139.6866  165.0866 C.3     1  UNL1        0.0047
     20 C         142.4565  138.8775  165.5972 C.3     1  UNL1        0.0047
     21 N         139.6443  142.9604  160.5462 N.pl3   1  UNL1       -0.2209
     22 H         139.1163  142.2033  160.2037 H       1  UNL1        0.2920
     23 C         140.6939  143.5944  159.6823 C.3     1  UNL1        0.1917
     24 C         140.4348  144.9262  159.0427 C.3     1  UNL1        0.0664
     25 C         141.4844  145.5602  158.1788 C.3     1  UNL1        0.0729
     26 N         142.7931  144.8624  157.9545 N.3     1  UNL1       -0.2950
     27 C         143.0522  143.5306  158.5942 C.3     1  UNL1        0.1085
     28 C         142.0027  142.8966  159.4580 C.3     1  UNL1        0.2186
     29 F         142.2618  141.5648  160.0977 F       1  UNL1       -0.2315
     30 H         143.5236  145.4939  158.2830 H       1  UNL1        0.1233
@<TRIPOS>BOND
     1    10    11    1
     2    11    12   ar
     3    12    13   ar
     4    13     1    1
     5     1     2    2
     6     2     3    1
     7     3     4    2
     8     4     5    1
     9     5     6    2
    10     6    21    1
    11    23    21    1
    12    23    24    1
    13    24    25    1
    14    25    26    1
    15    26    27    1
    16    27    28    1
    17    28    29    1
    18     6     7    1
    19     7     8    1
    20     8     9    2
    21     9    18    1
    22    18    19    1
    23    19    20    1
    24    13    14   ar
    25    14    15   ar
    26    15    16    1
    27    15    17   ar
    28    17    11   ar
    29     9     1    1
    30    20    18    1
    31     7     3    1
    32    28    23    1
    33    21    22    1
    34    26    30    1
@<TRIPOS>MOLECULE
*****
 30 34 0 0 0
SMALL
GASTEIGER

@<TRIPOS>ATOM
      1 C         140.7609  142.2941  166.0137 C.2     1  UNL1       -0.0029
      2 C         139.9085  143.5004  165.7522 C.2     1  UNL1        0.0192
      3 C         139.5067  143.8447  164.3487 C.2     1  UNL1        0.1207
      4 N         138.6788  144.9625  163.7873 N.2     1  UNL1       -0.0381
      5 N         138.6176  144.7914  162.2984 N.2     1  UNL1        0.0756
      6 C         139.4077  143.5679  161.9395 C.2     1  UNL1        0.3335
      7 C         139.9572  142.9828  163.2067 C.3     1  UNL1        0.1733
      8 C         140.8095  141.7765  163.4683 C.2     1  UNL1       -0.0125
      9 C         141.2114  141.4322  164.8718 C.2     1  UNL1       -0.0258
     10 C         144.2173  142.5141  169.8874 C.3     1  UNL1        0.0521
     11 C         142.8910  142.0597  169.3541 C.ar    1  UNL1        0.0590
     12 C         142.4891  142.4041  167.9506 C.ar    1  UNL1        0.0147
     13 C         141.1628  141.9497  167.4174 C.ar    1  UNL1        0.0021
     14 C         140.2383  141.1510  168.2876 C.ar    1  UNL1        0.0147
     15 C         140.6401  140.8067  169.6912 C.ar    1  UNL1        0.0590
     16 C         139.7155  140.0080  170.5614 C.3     1  UNL1        0.0521
     17 N         141.9665  141.2610  170.2244 N.ar    1  UNL1       -0.2540
     18 C         142.0637  140.2259  165.1333 C.3     1  UNL1        0.0221
     19 C         143.4141  139.5744  165.1783 C.3     1  UNL1        0.0047
     20 C         142.1895  138.7879  165.5413 C.3     1  UNL1        0.0047
     21 N         139.6124  143.0248  160.5563 N.pl3   1  UNL1       -0.2209
     22 H         139.0431  142.2928  160.2257 H       1  UNL1        0.2920
     23 C         140.6844  143.5970  159.6769 C.3     1  UNL1        0.1917
     24 C         140.4222  144.8479  158.8920 C.3     1  UNL1        0.0664
     25 C         141.4942  145.4202  158.0126 C.3     1  UNL1        0.0729
     26 N         142.8285  144.7413  157.9182 N.3     1  UNL1       -0.2950
     27 C         143.0907  143.4903  158.7032 C.3     1  UNL1        0.1085
     28 C         142.0187  142.9182  159.5826 C.3     1  UNL1        0.2186
     29 F         142.2809  141.6672  160.3676 F       1  UNL1       -0.2315
     30 H         143.5276  145.4242  158.2103 H       1  UNL1        0.1233
@<TRIPOS>BOND
     1    10    11    1
     2    11    12   ar
     3    12    13   ar
     4    13     1    1
     5     1     2    2
     6     2     3    1
     7     3     4    2
     8     4     5    1
     9     5     6    2
    10     6    21    1
    11    23    21    1
    12    23    24    1
    13    24    25    1
    14    25    26    1
    15    26    27    1
    16    27    28    1
    17    28    29    1
    18     6     7    1
    19     7     8    1
    20     8     9    2
    21     9    18    1
    22    18    19    1
    23    19    20    1
    24    13    14   ar
    25    14    15   ar
    26    15    16    1
    27    15    17   ar
    28    17    11   ar
    29     9     1    1
    30    20    18    1
    31     7     3    1
    32    28    23    1
    33    21    22    1
    34    26    30    1
@<TRIPOS>MOLECULE
*****
 30 34 0 0 0
SMALL
GASTEIGER

@<TRIPOS>ATOM
      1 C         140.5388  140.5597  164.1388 C.2     1  UNL1       -0.0029
      2 C         139.4080  139.5991  164.3593 C.2     1  UNL1        0.0192
      3 C         138.8844  139.3625  165.7449 C.2     1  UNL1        0.1207
      4 N         137.7884  138.4814  166.2668 N.2     1  UNL1       -0.0381
      5 N         137.7183  138.6608  167.7544 N.2     1  UNL1        0.0756
      6 C         138.7709  139.6527  168.1519 C.2     1  UNL1        0.3335
      7 C         139.4916  140.0864  166.9099 C.3     1  UNL1        0.1733
      8 C         140.6224  141.0470  166.6893 C.2     1  UNL1       -0.0125
      9 C         141.1459  141.2836  165.3037 C.2     1  UNL1       -0.0258
     10 C         140.3390  143.1387  159.6321 C.3     1  UNL1        0.0521
     11 C         140.9624  142.0859  160.4998 C.ar    1  UNL1        0.0590
     12 C         140.4389  141.8492  161.8854 C.ar    1  UNL1        0.0147
     13 C         141.0623  140.7964  162.7531 C.ar    1  UNL1        0.0021
     14 C         142.2093  139.9802  162.2352 C.ar    1  UNL1        0.0147
     15 C         142.7329  140.2168  160.8496 C.ar    1  UNL1        0.0590
     16 C         143.8799  139.4006  160.3317 C.3     1  UNL1        0.0521
     17 N         142.1094  141.2697  159.9819 N.ar    1  UNL1       -0.2540
     18 C         142.2767  142.2443  165.0831 C.3     1  UNL1        0.0221
     19 C         143.7128  142.6283  165.2834 C.3     1  UNL1        0.0047
     20 C         142.7991  143.5241  164.5008 C.3     1  UNL1        0.0047
     21 N         139.0532  140.1276  169.5464 N.pl3   1  UNL1       -0.2209
     22 H         138.3268  140.1661  170.2098 H       1  UNL1        0.2920
     23 C         140.4422  140.5440  169.9302 C.3     1  UNL1        0.1917
     24 C         141.5090  139.5076  170.1245 C.3     1  UNL1        0.0664
     25 C         142.8981  139.9238  170.5083 C.3     1  UNL1        0.0729
     26 N         143.2202  141.3766  170.6977 N.3     1  UNL1       -0.2950
     27 C         142.1534  142.4129  170.5034 C.3     1  UNL1        0.1085
     28 C         140.7644  141.9966  170.1196 C.3     1  UNL1        0.2186
     29 F         139.6975  143.0330  169.9253 F       1  UNL1       -0.2315
     30 H         143.9701  141.5997  170.0433 H       1  UNL1        0.1233
@<TRIPOS>BOND
     1    10    11    1
     2    11    12   ar
     3    12    13   ar
     4    13     1    1
     5     1     2    2
     6     2     3    1
     7     3     4    2
     8     4     5    1
     9     5     6    2
    10     6    21    1
    11    23    21    1
    12    23    24    1
    13    24    25    1
    14    25    26    1
    15    26    27    1
    16    27    28    1
    17    28    29    1
    18     6     7    1
    19     7     8    1
    20     8     9    2
    21     9    18    1
    22    18    19    1
    23    19    20    1
    24    13    14   ar
    25    14    15   ar
    26    15    16    1
    27    15    17   ar
    28    17    11   ar
    29     9     1    1
    30    20    18    1
    31     7     3    1
    32    28    23    1
    33    21    22    1
    34    26    30    1
@<TRIPOS>MOLECULE
*****
 30 34 0 0 0
SMALL
GASTEIGER

@<TRIPOS>ATOM
      1 C         139.8680  139.4361  164.0313 C.2     1  UNL1       -0.0029
      2 C         138.8022  138.5908  164.6636 C.2     1  UNL1        0.0192
      3 C         138.4637  138.7714  166.1137 C.2     1  UNL1        0.1207
      4 N         137.4679  138.0894  167.0043 N.2     1  UNL1       -0.0381
      5 N         137.5798  138.6937  168.3727 N.2     1  UNL1        0.0756
      6 C         138.6448  139.7491  168.3277 C.2     1  UNL1        0.3335
      7 C         139.1911  139.7971  166.9315 C.3     1  UNL1        0.1733
      8 C         140.2569  140.6423  166.2993 C.2     1  UNL1       -0.0125
      9 C         140.5953  140.4617  164.8492 C.2     1  UNL1       -0.0258
     10 C         142.9899  137.5253  160.3430 C.3     1  UNL1        0.0521
     11 C         141.7674  138.3002  160.7370 C.ar    1  UNL1        0.0590
     12 C         141.4289  138.4807  162.1871 C.ar    1  UNL1        0.0147
     13 C         140.2065  139.2556  162.5811 C.ar    1  UNL1        0.0021
     14 C         139.3225  139.8499  161.5250 C.ar    1  UNL1        0.0147
     15 C         139.6610  139.6693  160.0749 C.ar    1  UNL1        0.0590
     16 C         138.7769  140.2637  159.0188 C.3     1  UNL1        0.0521
     17 N         140.8834  138.8945  159.6809 N.ar    1  UNL1       -0.2540
     18 C         141.6611  141.3070  164.2169 C.3     1  UNL1        0.0221
     19 C         143.1105  141.5814  163.9450 C.3     1  UNL1        0.0047
     20 C         142.0576  142.4967  163.3938 C.3     1  UNL1        0.0047
     21 N         139.0859  140.6060  169.4771 N.pl3   1  UNL1       -0.2209
     22 H         138.4158  141.0323  170.0588 H       1  UNL1        0.2920
     23 C         140.5481  140.8133  169.7401 C.3     1  UNL1        0.1917
     24 C         141.4138  139.6495  170.1221 C.3     1  UNL1        0.0664
     25 C         142.8759  139.8568  170.3851 C.3     1  UNL1        0.0729
     26 N         143.4723  141.2281  170.2661 N.3     1  UNL1       -0.2950
     27 C         142.6065  142.3919  169.8841 C.3     1  UNL1        0.1085
     28 C         141.1445  142.1845  169.6211 C.3     1  UNL1        0.2186
     29 F         140.2787  143.3483  169.2390 F       1  UNL1       -0.2315
     30 H         144.2110  141.1681  169.5653 H       1  UNL1        0.1233
@<TRIPOS>BOND
     1    10    11    1
     2    11    12   ar
     3    12    13   ar
     4    13     1    1
     5     1     2    2
     6     2     3    1
     7     3     4    2
     8     4     5    1
     9     5     6    2
    10     6    21    1
    11    23    21    1
    12    23    24    1
    13    24    25    1
    14    25    26    1
    15    26    27    1
    16    27    28    1
    17    28    29    1
    18     6     7    1
    19     7     8    1
    20     8     9    2
    21     9    18    1
    22    18    19    1
    23    19    20    1
    24    13    14   ar
    25    14    15   ar
    26    15    16    1
    27    15    17   ar
    28    17    11   ar
    29     9     1    1
    30    20    18    1
    31     7     3    1
    32    28    23    1
    33    21    22    1
    34    26    30    1
@<TRIPOS>MOLECULE
*****
 30 34 0 0 0
SMALL
GASTEIGER

@<TRIPOS>ATOM
      1 C         141.8921  141.8759  165.9024 C.2     1  UNL1       -0.0029
      2 C         142.9830  142.8353  165.5288 C.2     1  UNL1        0.0192
      3 C         143.2043  143.1958  164.0896 C.2     1  UNL1        0.1207
      4 N         144.1935  144.1056  163.4235 N.2     1  UNL1       -0.0381
      5 N         143.9352  144.0690  161.9464 N.2     1  UNL1        0.0756
      6 C         142.7864  143.1366  161.6996 C.2     1  UNL1        0.3335
      7 C         142.3346  142.5969  163.0242 C.3     1  UNL1        0.1733
      8 C         141.2438  141.6376  163.3979 C.2     1  UNL1       -0.0125
      9 C         141.0225  141.2771  164.8371 C.2     1  UNL1       -0.0258
     10 C         139.7899  142.9349  170.5349 C.3     1  UNL1        0.0521
     11 C         140.6198  142.0449  169.6578 C.ar    1  UNL1        0.0590
     12 C         140.8410  142.4054  168.2187 C.ar    1  UNL1        0.0147
     13 C         141.6709  141.5154  167.3416 C.ar    1  UNL1        0.0021
     14 C         142.2795  140.2649  167.9037 C.ar    1  UNL1        0.0147
     15 C         142.0582  139.9045  169.3428 C.ar    1  UNL1        0.0590
     16 C         142.6669  138.6539  169.9048 C.3     1  UNL1        0.0521
     17 N         141.2284  140.7945  170.2199 N.ar    1  UNL1       -0.2540
     18 C         139.9316  140.3177  165.2107 C.3     1  UNL1        0.0221
     19 C         138.5030  140.0574  165.5866 C.3     1  UNL1        0.0047
     20 C         139.4708  138.9162  165.4820 C.3     1  UNL1        0.0047
     21 N         142.1934  142.8025  160.3629 N.pl3   1  UNL1       -0.2209
     22 H         142.0517  141.8621  160.1084 H       1  UNL1        0.2920
     23 C         141.8164  143.9013  159.4138 C.3     1  UNL1        0.1917
     24 C         142.6323  144.1372  158.1775 C.3     1  UNL1        0.0664
     25 C         142.2554  145.2360  157.2285 C.3     1  UNL1        0.0729
     26 N         141.0625  146.0988  157.5159 N.3     1  UNL1       -0.2950
     27 C         140.2466  145.8629  158.7523 C.3     1  UNL1        0.1085
     28 C         140.6236  144.7642  159.7012 C.3     1  UNL1        0.2186
     29 F         139.8077  144.5282  160.9376 F       1  UNL1       -0.2315
     30 H         140.4295  146.0001  156.7222 H       1  UNL1        0.1233
@<TRIPOS>BOND
     1    10    11    1
     2    11    12   ar
     3    12    13   ar
     4    13     1    1
     5     1     2    2
     6     2     3    1
     7     3     4    2
     8     4     5    1
     9     5     6    2
    10     6    21    1
    11    23    21    1
    12    23    24    1
    13    24    25    1
    14    25    26    1
    15    26    27    1
    16    27    28    1
    17    28    29    1
    18     6     7    1
    19     7     8    1
    20     8     9    2
    21     9    18    1
    22    18    19    1
    23    19    20    1
    24    13    14   ar
    25    14    15   ar
    26    15    16    1
    27    15    17   ar
    28    17    11   ar
    29     9     1    1
    30    20    18    1
    31     7     3    1
    32    28    23    1
    33    21    22    1
    34    26    30    1
@<TRIPOS>MOLECULE
*****
 30 34 0 0 0
SMALL
GASTEIGER

@<TRIPOS>ATOM
      1 C         141.3032  141.1252  165.2360 C.2     1  UNL1       -0.0029
      2 C         142.6503  140.5059  165.0081 C.2     1  UNL1        0.0192
      3 C         143.5136  140.9830  163.8780 C.2     1  UNL1        0.1207
      4 N         144.8767  140.5661  163.4112 N.2     1  UNL1       -0.0381
      5 N         145.2354  141.4048  162.2204 N.2     1  UNL1        0.0756
      6 C         144.0939  142.3401  161.9514 C.2     1  UNL1        0.3335
      7 C         143.0297  142.0793  162.9759 C.3     1  UNL1        0.1733
      8 C         141.6827  142.6986  163.2038 C.2     1  UNL1       -0.0125
      9 C         140.8194  142.2215  164.3339 C.2     1  UNL1       -0.0258
     10 C         137.4833  138.0789  167.0050 C.3     1  UNL1        0.0521
     11 C         138.5300  139.1249  167.2506 C.ar    1  UNL1        0.0590
     12 C         139.3932  139.6020  166.1205 C.ar    1  UNL1        0.0147
     13 C         140.4399  140.6480  166.3662 C.ar    1  UNL1        0.0021
     14 C         140.6233  141.2169  167.7419 C.ar    1  UNL1        0.0147
     15 C         139.7600  140.7398  168.8720 C.ar    1  UNL1        0.0590
     16 C         139.9435  141.3088  170.2478 C.3     1  UNL1        0.0521
     17 N         138.7134  139.6938  168.6264 N.ar    1  UNL1       -0.2540
     18 C         139.4723  142.8408  164.5618 C.3     1  UNL1        0.0221
     19 C         137.9762  142.7587  164.4920 C.3     1  UNL1        0.0047
     20 C         138.6353  143.9956  165.0263 C.3     1  UNL1        0.0047
     21 N         144.0282  143.3574  160.8511 N.pl3   1  UNL1       -0.2209
     22 H         144.2381  144.3006  161.0395 H       1  UNL1        0.2920
     23 C         143.6426  142.9376  159.4635 C.3     1  UNL1        0.1917
     24 C         144.7020  142.5430  158.4778 C.3     1  UNL1        0.0664
     25 C         144.3165  142.1233  157.0903 C.3     1  UNL1        0.0729
     26 N         142.8714  142.0982  156.6886 N.3     1  UNL1       -0.2950
     27 C         141.8120  142.4928  157.6745 C.3     1  UNL1        0.1085
     28 C         142.1976  142.9125  159.0619 C.3     1  UNL1        0.2186
     29 F         141.1382  143.3072  160.0477 F       1  UNL1       -0.2315
     30 H         142.6629  141.1426  156.3990 H       1  UNL1        0.1233
@<TRIPOS>BOND
     1    10    11    1
     2    11    12   ar
     3    12    13   ar
     4    13     1    1
     5     1     2    2
     6     2     3    1
     7     3     4    2
     8     4     5    1
     9     5     6    2
    10     6    21    1
    11    23    21    1
    12    23    24    1
    13    24    25    1
    14    25    26    1
    15    26    27    1
    16    27    28    1
    17    28    29    1
    18     6     7    1
    19     7     8    1
    20     8     9    2
    21     9    18    1
    22    18    19    1
    23    19    20    1
    24    13    14   ar
    25    14    15   ar
    26    15    16    1
    27    15    17   ar
    28    17    11   ar
    29     9     1    1
    30    20    18    1
    31     7     3    1
    32    28    23    1
    33    21    22    1
    34    26    30    1
