@<TRIPOS>MOLECULE
*****
 45 52 0 0 0
SMALL
GASTEIGER

@<TRIPOS>ATOM
      1 C         141.3018  138.9840  161.4757 C.ar    1  UNL1        0.0176
      2 C         142.4720  138.0927  161.1825 C.ar    1  UNL1        0.0012
      3 C         142.8156  137.7483  159.7635 C.ar    1  UNL1       -0.0029
      4 C         141.9889  138.2953  158.6378 C.ar    1  UNL1       -0.0061
      5 C         140.8186  139.1867  158.9311 C.ar    1  UNL1       -0.0029
      6 C         140.4751  139.5310  160.3500 C.ar    1  UNL1        0.0012
      7 C         137.7692  139.7068  170.3102 C.3     1  UNL1        0.0742
      8 C         138.7280  140.1667  169.2523 C.ar    1  UNL1        0.1475
      9 N         139.7377  141.2667  169.3954 N.ar    1  UNL1       -0.1330
     10 N         140.4791  141.3872  168.0971 N.ar    1  UNL1       -0.1287
     11 C         139.9277  140.3617  167.1515 C.ar    1  UNL1        0.1715
     12 C         140.2712  140.0173  165.7325 C.ar    1  UNL1        0.0540
     13 C         141.3535  140.7716  165.0186 C.ar    1  UNL1        0.0061
     14 C         141.6970  140.4271  163.5997 C.ar    1  UNL1        0.0178
     15 C         140.9582  139.3284  162.8947 C.ar    1  UNL1        0.0812
     16 N         139.8760  138.5741  163.6086 N.ar    1  UNL1       -0.2452
     17 C         139.5325  138.9185  165.0276 C.ar    1  UNL1        0.0857
     18 C         138.4502  138.1643  165.7414 C.ar    1  UNL1        0.0383
     19 C         138.1067  138.5087  167.1604 C.ar    1  UNL1        0.0841
     20 N         138.8454  139.6074  167.8654 N.ar    1  UNL1       -0.2758
     21 C         142.7793  141.1815  162.8858 C.ar    1  UNL1        0.0015
     22 C         144.2187  140.8319  163.1225 C.ar    1  UNL1        0.0000
     23 C         145.3009  141.5863  162.4086 C.ar    1  UNL1        0.0000
     24 C         144.9438  142.6903  161.4579 C.ar    1  UNL1        0.0000
     25 C         143.5044  143.0399  161.2212 C.ar    1  UNL1        0.0000
     26 C         142.4222  142.2855  161.9352 C.ar    1  UNL1        0.0000
     27 C         142.3324  137.9510  157.2189 C.3     1  UNL1        0.0991
     28 N         142.2743  136.5246  156.7582 N.3     1  UNL1       -0.2689
     29 C         141.2359  136.0995  155.7628 C.3     1  UNL1        0.0728
     30 C         141.1779  134.6733  155.3021 C.3     1  UNL1        0.0249
     31 C         142.1584  133.6719  155.8370 C.3     1  UNL1        0.0613
     32 C         143.1969  134.0970  156.8324 C.3     1  UNL1        0.0249
     33 C         143.2548  135.5233  157.2930 C.3     1  UNL1        0.0728
     34 C         142.1005  132.2456  155.3763 C.ar    1  UNL1        0.1396
     35 N         143.2696  131.4092  154.9479 N.ar    1  UNL1       -0.1335
     36 N         142.7549  130.0519  154.5701 N.ar    1  UNL1       -0.1277
     37 C         141.2676  130.0494  154.7649 C.ar    1  UNL1        0.1807
     38 N         140.8632  131.4052  155.2632 N.ar    1  UNL1       -0.3234
     39 H         139.9465  131.6929  155.4782 H       1  UNL1        0.1686
     40 C         140.3465  128.8941  154.5068 C.ar    1  UNL1        0.1169
     41 C         139.6866  128.1898  155.6551 C.ar    1  UNL1        0.0223
     42 C         138.7655  127.0344  155.3969 C.ar    1  UNL1        0.0032
     43 C         138.5042  126.5833  153.9904 C.ar    1  UNL1        0.0207
     44 C         139.1640  127.2876  152.8421 C.ar    1  UNL1        0.0989
     45 N         140.0852  128.4430  153.1003 N.ar    1  UNL1       -0.2407
@<TRIPOS>BOND
     1     7     8    1
     2     8     9   ar
     3     9    10   ar
     4    10    11   ar
     5    11    12   ar
     6    12    13   ar
     7    13    14   ar
     8    14    21    1
     9    21    22   ar
    10    22    23   ar
    11    23    24   ar
    12    24    25   ar
    13    25    26   ar
    14    14    15   ar
    15    15     1    1
    16     1     2   ar
    17     2     3   ar
    18     3     4   ar
    19     4    27    1
    20    27    28    1
    21    28    29    1
    22    29    30    1
    23    30    31    1
    24    31    34    1
    25    34    35   ar
    26    35    36   ar
    27    36    37   ar
    28    37    40    1
    29    40    41   ar
    30    41    42   ar
    31    42    43   ar
    32    43    44   ar
    33    44    45   ar
    34    37    38   ar
    35    31    32    1
    36    32    33    1
    37     4     5   ar
    38     5     6   ar
    39    15    16   ar
    40    16    17   ar
    41    17    18   ar
    42    18    19   ar
    43    19    20   ar
    44    20     8   ar
    45    20    11   ar
    46    17    12   ar
    47    26    21   ar
    48     6     1   ar
    49    33    28    1
    50    38    34   ar
    51    45    40   ar
    52    38    39    1
@<TRIPOS>MOLECULE
*****
 45 52 0 0 0
SMALL
GASTEIGER

@<TRIPOS>ATOM
      1 C         143.0970  136.9765  156.6630 C.ar    1  UNL1        0.0176
      2 C         142.6083  137.6288  157.9221 C.ar    1  UNL1        0.0012
      3 C         142.9261  139.0697  158.1924 C.ar    1  UNL1       -0.0029
      4 C         143.7327  139.8581  157.2036 C.ar    1  UNL1       -0.0061
      5 C         144.2214  139.2057  155.9444 C.ar    1  UNL1       -0.0029
      6 C         143.9036  137.7649  155.6741 C.ar    1  UNL1        0.0012
      7 C         142.6683  127.4605  156.1035 C.3     1  UNL1        0.0742
      8 C         142.1237  128.8097  155.7384 C.ar    1  UNL1        0.1475
      9 N         140.9302  129.0730  154.8689 N.ar    1  UNL1       -0.1330
     10 N         140.7459  130.5585  154.7719 N.ar    1  UNL1       -0.1287
     11 C         141.8257  131.2133  155.5814 C.ar    1  UNL1        0.1715
     12 C         142.1435  132.6541  155.8518 C.ar    1  UNL1        0.0540
     13 C         141.2920  133.7349  155.2545 C.ar    1  UNL1        0.0061
     14 C         141.6098  135.1756  155.5249 C.ar    1  UNL1        0.0178
     15 C         142.7792  135.5356  156.3926 C.ar    1  UNL1        0.0812
     16 N         143.6307  134.4549  156.9899 N.ar    1  UNL1       -0.2452
     17 C         143.3129  133.0140  156.7195 C.ar    1  UNL1        0.0857
     18 C         144.1644  131.9333  157.3168 C.ar    1  UNL1        0.0383
     19 C         143.8466  130.4925  157.0465 C.ar    1  UNL1        0.0841
     20 N         142.6772  130.1325  156.1787 N.ar    1  UNL1       -0.2758
     21 C         140.7583  136.2564  154.9275 C.ar    1  UNL1        0.0015
     22 C         139.6388  136.8565  155.7254 C.ar    1  UNL1        0.0000
     23 C         138.7873  137.9371  155.1280 C.ar    1  UNL1        0.0000
     24 C         139.0552  138.4178  153.7325 C.ar    1  UNL1        0.0000
     25 C         140.1747  137.8178  152.9346 C.ar    1  UNL1        0.0000
     26 C         141.0262  136.7371  153.5321 C.ar    1  UNL1        0.0000
     27 C         144.0505  141.2989  157.4739 C.3     1  UNL1        0.0991
     28 N         143.0920  142.3711  157.0474 N.3     1  UNL1       -0.2689
     29 C         143.0270  143.6638  157.8054 C.3     1  UNL1        0.0728
     30 C         142.0686  144.7359  157.3789 C.3     1  UNL1        0.0249
     31 C         141.1751  144.5153  156.1943 C.3     1  UNL1        0.0613
     32 C         141.2402  143.2226  155.4363 C.3     1  UNL1        0.0249
     33 C         142.1987  142.1505  155.8628 C.3     1  UNL1        0.0728
     34 C         140.2167  145.5874  155.7678 C.ar    1  UNL1        0.1396
     35 N         138.7546  145.4027  155.4882 N.ar    1  UNL1       -0.1335
     36 N         138.1863  146.7336  155.0936 N.ar    1  UNL1       -0.1277
     37 C         139.2972  147.7409  155.1292 C.ar    1  UNL1        0.1807
     38 N         140.5521  147.0325  155.5459 N.ar    1  UNL1       -0.3234
     39 H         141.4399  147.4438  155.6546 H       1  UNL1        0.1686
     40 C         139.1749  149.2003  154.8051 C.ar    1  UNL1        0.1169
     41 C         138.5867  150.1452  155.8107 C.ar    1  UNL1        0.0223
     42 C         138.4643  151.6047  155.4865 C.ar    1  UNL1        0.0032
     43 C         138.9302  152.1192  154.1567 C.ar    1  UNL1        0.0207
     44 C         139.5183  151.1743  153.1511 C.ar    1  UNL1        0.0989
     45 N         139.6407  149.7148  153.4753 N.ar    1  UNL1       -0.2407
@<TRIPOS>BOND
     1     7     8    1
     2     8     9   ar
     3     9    10   ar
     4    10    11   ar
     5    11    12   ar
     6    12    13   ar
     7    13    14   ar
     8    14    21    1
     9    21    22   ar
    10    22    23   ar
    11    23    24   ar
    12    24    25   ar
    13    25    26   ar
    14    14    15   ar
    15    15     1    1
    16     1     2   ar
    17     2     3   ar
    18     3     4   ar
    19     4    27    1
    20    27    28    1
    21    28    29    1
    22    29    30    1
    23    30    31    1
    24    31    34    1
    25    34    35   ar
    26    35    36   ar
    27    36    37   ar
    28    37    40    1
    29    40    41   ar
    30    41    42   ar
    31    42    43   ar
    32    43    44   ar
    33    44    45   ar
    34    37    38   ar
    35    31    32    1
    36    32    33    1
    37     4     5   ar
    38     5     6   ar
    39    15    16   ar
    40    16    17   ar
    41    17    18   ar
    42    18    19   ar
    43    19    20   ar
    44    20     8   ar
    45    20    11   ar
    46    17    12   ar
    47    26    21   ar
    48     6     1   ar
    49    33    28    1
    50    38    34   ar
    51    45    40   ar
    52    38    39    1
@<TRIPOS>MOLECULE
*****
 45 52 0 0 0
SMALL
GASTEIGER

@<TRIPOS>ATOM
      1 C         138.8347  145.3842  155.6530 C.ar    1  UNL1        0.0176
      2 C         139.6133  144.6936  156.7332 C.ar    1  UNL1        0.0012
      3 C         139.1749  143.3480  157.2304 C.ar    1  UNL1       -0.0029
      4 C         137.9579  142.6930  156.6473 C.ar    1  UNL1       -0.0061
      5 C         137.1793  143.3837  155.5671 C.ar    1  UNL1       -0.0029
      6 C         137.6177  144.7293  155.0700 C.ar    1  UNL1        0.0012
      7 C         140.2299  154.6305  153.7530 C.3     1  UNL1        0.0742
      8 C         140.5757  153.1894  153.5209 C.ar    1  UNL1        0.1475
      9 N         141.6197  152.6745  152.5749 N.ar    1  UNL1       -0.1330
     10 N         141.6274  151.1771  152.6634 N.ar    1  UNL1       -0.1287
     11 C         140.5882  150.7666  153.6642 C.ar    1  UNL1        0.1715
     12 C         140.1499  149.4210  154.1614 C.ar    1  UNL1        0.0540
     13 C         140.7998  148.1774  153.6315 C.ar    1  UNL1        0.0061
     14 C         140.3614  146.8318  154.1287 C.ar    1  UNL1        0.0178
     15 C         139.2731  146.7299  155.1558 C.ar    1  UNL1        0.0812
     16 N         138.6231  147.9735  155.6858 N.ar    1  UNL1       -0.2452
     17 C         139.0615  149.3191  155.1886 C.ar    1  UNL1        0.0857
     18 C         138.4116  150.5627  155.7185 C.ar    1  UNL1        0.0383
     19 C         138.8499  151.9084  155.2213 C.ar    1  UNL1        0.0841
     20 N         139.9383  152.0103  154.1941 N.ar    1  UNL1       -0.2758
     21 C         141.0115  145.5881  153.5987 C.ar    1  UNL1        0.0015
     22 C         140.3472  144.8009  152.5082 C.ar    1  UNL1        0.0000
     23 C         140.9973  143.5574  151.9783 C.ar    1  UNL1        0.0000
     24 C         142.3117  143.1009  152.5388 C.ar    1  UNL1        0.0000
     25 C         142.9759  143.8881  153.6292 C.ar    1  UNL1        0.0000
     26 C         142.3258  145.1317  154.1592 C.ar    1  UNL1        0.0000
     27 C         137.5195  141.3474  157.1444 C.3     1  UNL1        0.0991
     28 N         138.2900  140.1188  156.7611 N.3     1  UNL1       -0.2689
     29 C         138.1210  139.5233  155.3948 C.3     1  UNL1        0.0728
     30 C         138.8914  138.2948  155.0116 C.3     1  UNL1        0.0249
     31 C         139.8310  137.6616  155.9947 C.3     1  UNL1        0.0613
     32 C         140.0000  138.2571  157.3610 C.3     1  UNL1        0.0249
     33 C         139.2295  139.4857  157.7442 C.3     1  UNL1        0.0728
     34 C         140.6015  136.4330  155.6114 C.ar    1  UNL1        0.1396
     35 N         140.4960  135.6967  154.3089 N.ar    1  UNL1       -0.1335
     36 N         141.4420  134.5336  154.3558 N.ar    1  UNL1       -0.1277
     37 C         142.1323  134.5511  155.6875 C.ar    1  UNL1        0.1807
     38 N         141.6128  135.7250  156.4635 N.ar    1  UNL1       -0.3234
     39 H         141.8874  135.9850  157.3724 H       1  UNL1        0.1686
     40 C         143.1613  133.5675  156.1602 C.ar    1  UNL1        0.1169
     41 C         143.5302  132.3958  155.2992 C.ar    1  UNL1        0.0223
     42 C         144.5592  131.4121  155.7720 C.ar    1  UNL1        0.0032
     43 C         145.2195  131.6001  157.1057 C.ar    1  UNL1        0.0207
     44 C         144.8506  132.7718  157.9666 C.ar    1  UNL1        0.0989
     45 N         143.8215  133.7555  157.4939 N.ar    1  UNL1       -0.2407
@<TRIPOS>BOND
     1     7     8    1
     2     8     9   ar
     3     9    10   ar
     4    10    11   ar
     5    11    12   ar
     6    12    13   ar
     7    13    14   ar
     8    14    21    1
     9    21    22   ar
    10    22    23   ar
    11    23    24   ar
    12    24    25   ar
    13    25    26   ar
    14    14    15   ar
    15    15     1    1
    16     1     2   ar
    17     2     3   ar
    18     3     4   ar
    19     4    27    1
    20    27    28    1
    21    28    29    1
    22    29    30    1
    23    30    31    1
    24    31    34    1
    25    34    35   ar
    26    35    36   ar
    27    36    37   ar
    28    37    40    1
    29    40    41   ar
    30    41    42   ar
    31    42    43   ar
    32    43    44   ar
    33    44    45   ar
    34    37    38   ar
    35    31    32    1
    36    32    33    1
    37     4     5   ar
    38     5     6   ar
    39    15    16   ar
    40    16    17   ar
    41    17    18   ar
    42    18    19   ar
    43    19    20   ar
    44    20     8   ar
    45    20    11   ar
    46    17    12   ar
    47    26    21   ar
    48     6     1   ar
    49    33    28    1
    50    38    34   ar
    51    45    40   ar
    52    38    39    1
@<TRIPOS>MOLECULE
*****
 45 52 0 0 0
SMALL
GASTEIGER

@<TRIPOS>ATOM
      1 C         141.2152  141.7157  157.2117 C.ar    1  UNL1        0.0176
      2 C         140.8882  142.3709  158.5207 C.ar    1  UNL1        0.0012
      3 C         139.7513  141.8568  159.3534 C.ar    1  UNL1       -0.0029
      4 C         138.9415  140.6876  158.8770 C.ar    1  UNL1       -0.0061
      5 C         139.2686  140.0324  157.5679 C.ar    1  UNL1       -0.0029
      6 C         140.4054  140.5464  156.7352 C.ar    1  UNL1        0.0012
      7 C         149.4904  143.5405  152.8253 C.3     1  UNL1        0.0742
      8 C         148.0392  143.8509  153.0437 C.ar    1  UNL1        0.1475
      9 N         147.2568  144.9337  152.3616 N.ar    1  UNL1       -0.1330
     10 N         145.8497  144.8849  152.8789 N.ar    1  UNL1       -0.1287
     11 C         145.7624  143.7720  153.8808 C.ar    1  UNL1        0.1715
     12 C         144.6257  143.2579  154.7135 C.ar    1  UNL1        0.0540
     13 C         143.2724  143.8970  154.6117 C.ar    1  UNL1        0.0061
     14 C         142.1356  143.3829  155.4444 C.ar    1  UNL1        0.0178
     15 C         142.3521  142.2298  156.3790 C.ar    1  UNL1        0.0812
     16 N         143.7052  141.5907  156.4808 N.ar    1  UNL1       -0.2452
     17 C         144.8421  142.1048  155.6481 C.ar    1  UNL1        0.0857
     18 C         146.1953  141.4657  155.7499 C.ar    1  UNL1        0.0383
     19 C         147.3321  141.9798  154.9172 C.ar    1  UNL1        0.0841
     20 N         147.1157  143.1329  153.9827 N.ar    1  UNL1       -0.2758
     21 C         140.7824  144.0220  155.3425 C.ar    1  UNL1        0.0015
     22 C         140.4910  145.2857  156.0963 C.ar    1  UNL1        0.0000
     23 C         139.1379  145.9248  155.9944 C.ar    1  UNL1        0.0000
     24 C         138.0759  145.3001  155.1386 C.ar    1  UNL1        0.0000
     25 C         138.3673  144.0365  154.3848 C.ar    1  UNL1        0.0000
     26 C         139.7205  143.3974  154.4868 C.ar    1  UNL1        0.0000
     27 C         137.8047  140.1735  159.7096 C.3     1  UNL1        0.0991
     28 N         137.9657  140.0343  161.1945 N.3     1  UNL1       -0.2689
     29 C         137.6780  141.2007  162.0927 C.3     1  UNL1        0.0728
     30 C         137.8390  141.0615  163.5775 C.3     1  UNL1        0.0249
     31 C         138.2876  139.7559  164.1642 C.3     1  UNL1        0.0613
     32 C         138.5752  138.5895  163.2659 C.3     1  UNL1        0.0249
     33 C         138.4142  138.7287  161.7811 C.3     1  UNL1        0.0728
     34 C         138.4486  139.6167  165.6489 C.ar    1  UNL1        0.1396
     35 N         137.6079  138.7623  166.5507 N.ar    1  UNL1       -0.1335
     36 N         138.1182  138.9250  167.9518 N.ar    1  UNL1       -0.1277
     37 C         139.2744  139.8800  167.9160 C.ar    1  UNL1        0.1807
     38 N         139.4786  140.3075  166.4928 N.ar    1  UNL1       -0.3234
     39 H         140.1676  140.9318  166.1693 H       1  UNL1        0.1686
     40 C         140.0842  140.3287  169.0961 C.ar    1  UNL1        0.1169
     41 C         141.4612  139.7754  169.3150 C.ar    1  UNL1        0.0223
     42 C         142.2710  140.2242  170.4951 C.ar    1  UNL1        0.0032
     43 C         141.7038  141.2262  171.4565 C.ar    1  UNL1        0.0207
     44 C         140.3269  141.7795  171.2377 C.ar    1  UNL1        0.0989
     45 N         139.5170  141.3307  170.0575 N.ar    1  UNL1       -0.2407
@<TRIPOS>BOND
     1     7     8    1
     2     8     9   ar
     3     9    10   ar
     4    10    11   ar
     5    11    12   ar
     6    12    13   ar
     7    13    14   ar
     8    14    21    1
     9    21    22   ar
    10    22    23   ar
    11    23    24   ar
    12    24    25   ar
    13    25    26   ar
    14    14    15   ar
    15    15     1    1
    16     1     2   ar
    17     2     3   ar
    18     3     4   ar
    19     4    27    1
    20    27    28    1
    21    28    29    1
    22    29    30    1
    23    30    31    1
    24    31    34    1
    25    34    35   ar
    26    35    36   ar
    27    36    37   ar
    28    37    40    1
    29    40    41   ar
    30    41    42   ar
    31    42    43   ar
    32    43    44   ar
    33    44    45   ar
    34    37    38   ar
    35    31    32    1
    36    32    33    1
    37     4     5   ar
    38     5     6   ar
    39    15    16   ar
    40    16    17   ar
    41    17    18   ar
    42    18    19   ar
    43    19    20   ar
    44    20     8   ar
    45    20    11   ar
    46    17    12   ar
    47    26    21   ar
    48     6     1   ar
    49    33    28    1
    50    38    34   ar
    51    45    40   ar
    52    38    39    1
@<TRIPOS>MOLECULE
*****
 45 52 0 0 0
SMALL
GASTEIGER

@<TRIPOS>ATOM
      1 C         142.1241  139.4100  160.8830 C.ar    1  UNL1        0.0176
      2 C         140.8759  138.8162  160.3008 C.ar    1  UNL1        0.0012
      3 C         140.8524  138.3772  158.8666 C.ar    1  UNL1       -0.0029
      4 C         142.0773  138.5320  158.0148 C.ar    1  UNL1       -0.0061
      5 C         143.3256  139.1258  158.5971 C.ar    1  UNL1       -0.0029
      6 C         143.3490  139.5648  160.0312 C.ar    1  UNL1        0.0012
      7 C         142.9504  140.3497  170.3426 C.3     1  UNL1        0.0742
      8 C         142.5900  140.9268  169.0059 C.ar    1  UNL1        0.1475
      9 N         142.0826  142.3156  168.7529 N.ar    1  UNL1       -0.1330
     10 N         141.8527  142.4637  167.2781 N.ar    1  UNL1       -0.1287
     11 C         142.2179  141.1664  166.6195 C.ar    1  UNL1        0.1715
     12 C         142.1945  140.7273  165.1854 C.ar    1  UNL1        0.0540
     13 C         141.7388  141.6771  164.1175 C.ar    1  UNL1        0.0061
     14 C         141.7154  141.2380  162.6834 C.ar    1  UNL1        0.0178
     15 C         142.1476  139.8491  162.3172 C.ar    1  UNL1        0.0812
     16 N         142.6032  138.8994  163.3850 N.ar    1  UNL1       -0.2452
     17 C         142.6267  139.3384  164.8191 C.ar    1  UNL1        0.0857
     18 C         143.0824  138.3887  165.8869 C.ar    1  UNL1        0.0383
     19 C         143.1058  138.8278  167.3211 C.ar    1  UNL1        0.0841
     20 N         142.6736  140.2166  167.6873 N.ar    1  UNL1       -0.2758
     21 C         141.2596  142.1878  161.6156 C.ar    1  UNL1        0.0015
     22 C         142.2570  143.0591  160.9113 C.ar    1  UNL1        0.0000
     23 C         141.8013  144.0089  159.8436 C.ar    1  UNL1        0.0000
     24 C         140.3481  144.0875  159.4801 C.ar    1  UNL1        0.0000
     25 C         139.3507  143.2162  160.1844 C.ar    1  UNL1        0.0000
     26 C         139.8065  142.2664  161.2522 C.ar    1  UNL1        0.0000
     27 C         142.0539  138.0929  156.5807 C.3     1  UNL1        0.0991
     28 N         142.0246  136.6314  156.2442 N.3     1  UNL1       -0.2689
     29 C         142.9394  135.6793  156.9560 C.3     1  UNL1        0.0728
     30 C         142.9100  134.2180  156.6195 C.3     1  UNL1        0.0249
     31 C         141.9658  133.7085  155.5711 C.3     1  UNL1        0.0613
     32 C         141.0510  134.6606  154.8593 C.3     1  UNL1        0.0249
     33 C         141.0804  136.1220  155.1958 C.3     1  UNL1        0.0728
     34 C         141.9365  132.2471  155.2345 C.ar    1  UNL1        0.1396
     35 N         143.1302  131.3813  154.9600 N.ar    1  UNL1       -0.1335
     36 N         142.6398  129.9940  154.6693 N.ar    1  UNL1       -0.1277
     37 C         141.1428  130.0022  154.7640 C.ar    1  UNL1        0.1807
     38 N         140.7081  131.3947  155.1134 N.ar    1  UNL1       -0.3234
     39 H         139.7797  131.6962  155.2408 H       1  UNL1        0.1686
     40 C         140.2392  128.8248  154.5475 C.ar    1  UNL1        0.1169
     41 C         139.5834  128.1569  155.7197 C.ar    1  UNL1        0.0223
     42 C         138.6797  126.9794  155.5031 C.ar    1  UNL1        0.0032
     43 C         138.4318  126.4698  154.1143 C.ar    1  UNL1        0.0207
     44 C         139.0874  127.1376  152.9421 C.ar    1  UNL1        0.0989
     45 N         139.9912  128.3151  153.1587 N.ar    1  UNL1       -0.2407
@<TRIPOS>BOND
     1     7     8    1
     2     8     9   ar
     3     9    10   ar
     4    10    11   ar
     5    11    12   ar
     6    12    13   ar
     7    13    14   ar
     8    14    21    1
     9    21    22   ar
    10    22    23   ar
    11    23    24   ar
    12    24    25   ar
    13    25    26   ar
    14    14    15   ar
    15    15     1    1
    16     1     2   ar
    17     2     3   ar
    18     3     4   ar
    19     4    27    1
    20    27    28    1
    21    28    29    1
    22    29    30    1
    23    30    31    1
    24    31    34    1
    25    34    35   ar
    26    35    36   ar
    27    36    37   ar
    28    37    40    1
    29    40    41   ar
    30    41    42   ar
    31    42    43   ar
    32    43    44   ar
    33    44    45   ar
    34    37    38   ar
    35    31    32    1
    36    32    33    1
    37     4     5   ar
    38     5     6   ar
    39    15    16   ar
    40    16    17   ar
    41    17    18   ar
    42    18    19   ar
    43    19    20   ar
    44    20     8   ar
    45    20    11   ar
    46    17    12   ar
    47    26    21   ar
    48     6     1   ar
    49    33    28    1
    50    38    34   ar
    51    45    40   ar
    52    38    39    1
@<TRIPOS>MOLECULE
*****
 45 52 0 0 0
SMALL
GASTEIGER

@<TRIPOS>ATOM
      1 C         140.7637  140.9130  162.1184 C.ar    1  UNL1        0.0176
      2 C         140.0191  141.8531  161.2176 C.ar    1  UNL1        0.0012
      3 C         140.3545  141.9157  159.7568 C.ar    1  UNL1       -0.0029
      4 C         141.4345  141.0381  159.1971 C.ar    1  UNL1       -0.0061
      5 C         142.1792  140.0980  160.0980 C.ar    1  UNL1       -0.0029
      6 C         141.8438  140.0354  161.5587 C.ar    1  UNL1        0.0012
      7 C         137.3773  139.0602  170.8448 C.3     1  UNL1        0.0742
      8 C         138.2820  139.8446  169.9413 C.ar    1  UNL1        0.1475
      9 N         139.2214  140.9347  170.3646 N.ar    1  UNL1       -0.1330
     10 N         139.9262  141.4404  169.1409 N.ar    1  UNL1       -0.1287
     11 C         139.4225  140.6628  167.9613 C.ar    1  UNL1        0.1715
     12 C         139.7578  140.7253  166.5006 C.ar    1  UNL1        0.0540
     13 C         140.7739  141.7116  166.0059 C.ar    1  UNL1        0.0061
     14 C         141.1092  141.7741  164.5452 C.ar    1  UNL1        0.0178
     15 C         140.4284  140.8504  163.5792 C.ar    1  UNL1        0.0812
     16 N         139.4123  139.8642  164.0738 N.ar    1  UNL1       -0.2452
     17 C         139.0769  139.8016  165.5346 C.ar    1  UNL1        0.0857
     18 C         138.0609  138.8154  166.0292 C.ar    1  UNL1        0.0383
     19 C         137.7255  138.7528  167.4900 C.ar    1  UNL1        0.0841
     20 N         138.4063  139.6765  168.4560 N.ar    1  UNL1       -0.2758
     21 C         142.1254  142.7605  164.0506 C.ar    1  UNL1        0.0015
     22 C         141.7239  144.1808  163.7831 C.ar    1  UNL1        0.0000
     23 C         142.7400  145.1670  163.2886 C.ar    1  UNL1        0.0000
     24 C         144.1579  144.7329  163.0613 C.ar    1  UNL1        0.0000
     25 C         144.5593  143.3126  163.3287 C.ar    1  UNL1        0.0000
     26 C         143.5431  142.3264  163.8233 C.ar    1  UNL1        0.0000
     27 C         141.7699  141.1007  157.7364 C.3     1  UNL1        0.0991
     28 N         141.5418  142.3687  156.9682 N.3     1  UNL1       -0.2689
     29 C         142.5289  143.4938  157.0677 C.3     1  UNL1        0.0728
     30 C         142.3008  144.7617  156.2995 C.3     1  UNL1        0.0249
     31 C         141.0855  144.9047  155.4318 C.3     1  UNL1        0.0613
     32 C         140.0985  143.7796  155.3323 C.3     1  UNL1        0.0249
     33 C         140.3266  142.5116  156.1005 C.3     1  UNL1        0.0728
     34 C         140.8574  146.1726  154.6636 C.ar    1  UNL1        0.1396
     35 N         141.2637  146.4278  153.2424 N.ar    1  UNL1       -0.1335
     36 N         140.8404  147.8209  152.8821 N.ar    1  UNL1       -0.1277
     37 C         140.1724  148.4269  154.0807 C.ar    1  UNL1        0.1807
     38 N         140.1830  147.4082  155.1817 N.ar    1  UNL1       -0.3234
     39 H         139.8123  147.5294  156.0857 H       1  UNL1        0.1686
     40 C         139.5953  149.8089  154.1638 C.ar    1  UNL1        0.1169
     41 C         139.0065  150.2996  155.4532 C.ar    1  UNL1        0.0223
     42 C         138.4294  151.6817  155.5362 C.ar    1  UNL1        0.0032
     43 C         138.4409  152.5730  154.3298 C.ar    1  UNL1        0.0207
     44 C         139.0296  152.0823  153.0404 C.ar    1  UNL1        0.0989
     45 N         139.6068  150.7002  152.9573 N.ar    1  UNL1       -0.2407
@<TRIPOS>BOND
     1     7     8    1
     2     8     9   ar
     3     9    10   ar
     4    10    11   ar
     5    11    12   ar
     6    12    13   ar
     7    13    14   ar
     8    14    21    1
     9    21    22   ar
    10    22    23   ar
    11    23    24   ar
    12    24    25   ar
    13    25    26   ar
    14    14    15   ar
    15    15     1    1
    16     1     2   ar
    17     2     3   ar
    18     3     4   ar
    19     4    27    1
    20    27    28    1
    21    28    29    1
    22    29    30    1
    23    30    31    1
    24    31    34    1
    25    34    35   ar
    26    35    36   ar
    27    36    37   ar
    28    37    40    1
    29    40    41   ar
    30    41    42   ar
    31    42    43   ar
    32    43    44   ar
    33    44    45   ar
    34    37    38   ar
    35    31    32    1
    36    32    33    1
    37     4     5   ar
    38     5     6   ar
    39    15    16   ar
    40    16    17   ar
    41    17    18   ar
    42    18    19   ar
    43    19    20   ar
    44    20     8   ar
    45    20    11   ar
    46    17    12   ar
    47    26    21   ar
    48     6     1   ar
    49    33    28    1
    50    38    34   ar
    51    45    40   ar
    52    38    39    1
@<TRIPOS>MOLECULE
*****
 45 52 0 0 0
SMALL
GASTEIGER

@<TRIPOS>ATOM
      1 C         143.0988  136.7447  156.4615 C.ar    1  UNL1        0.0176
      2 C         142.6020  137.0074  157.8521 C.ar    1  UNL1        0.0012
      3 C         142.6553  138.3957  158.4179 C.ar    1  UNL1       -0.0029
      4 C         143.2054  139.5211  157.5929 C.ar    1  UNL1       -0.0061
      5 C         143.7022  139.2584  156.2021 C.ar    1  UNL1       -0.0029
      6 C         143.6489  137.8702  155.6364 C.ar    1  UNL1        0.0012
      7 C         144.2974  127.5778  154.0992 C.3     1  UNL1        0.0742
      8 C         143.5655  128.8769  153.9360 C.ar    1  UNL1        0.1475
      9 N         142.4133  129.1295  153.0094 N.ar    1  UNL1       -0.1330
     10 N         141.9930  130.5602  153.1715 N.ar    1  UNL1       -0.1287
     11 C         142.8855  131.1920  154.1983 C.ar    1  UNL1        0.1715
     12 C         142.9389  132.5802  154.7641 C.ar    1  UNL1        0.0540
     13 C         141.9670  133.6205  154.2916 C.ar    1  UNL1        0.0061
     14 C         142.0203  135.0087  154.8574 C.ar    1  UNL1        0.0178
     15 C         143.0455  135.3565  155.8957 C.ar    1  UNL1        0.0812
     16 N         144.0173  134.3162  156.3681 N.ar    1  UNL1       -0.2452
     17 C         143.9640  132.9280  155.8024 C.ar    1  UNL1        0.0857
     18 C         144.9358  131.8877  156.2748 C.ar    1  UNL1        0.0383
     19 C         144.8825  130.4995  155.7090 C.ar    1  UNL1        0.0841
     20 N         143.8574  130.1517  154.6707 N.ar    1  UNL1       -0.2758
     21 C         141.0485  136.0490  154.3849 C.ar    1  UNL1        0.0015
     22 C         141.2188  136.6754  153.0326 C.ar    1  UNL1        0.0000
     23 C         140.2469  137.7156  152.5602 C.ar    1  UNL1        0.0000
     24 C         139.1046  138.1295  153.4399 C.ar    1  UNL1        0.0000
     25 C         138.9343  137.5031  154.7922 C.ar    1  UNL1        0.0000
     26 C         139.9062  136.4628  155.2646 C.ar    1  UNL1        0.0000
     27 C         143.2587  140.9093  158.1586 C.3     1  UNL1        0.0991
     28 N         142.7540  141.1736  159.5462 N.3     1  UNL1       -0.2689
     29 C         143.7021  141.1413  160.7081 C.3     1  UNL1        0.0728
     30 C         143.1973  141.4056  162.0956 C.3     1  UNL1        0.0249
     31 C         141.7443  141.7021  162.3213 C.3     1  UNL1        0.0613
     32 C         140.7961  141.7344  161.1595 C.3     1  UNL1        0.0249
     33 C         141.3010  141.4701  159.7719 C.3     1  UNL1        0.0728
     34 C         141.2395  141.9663  163.7088 C.ar    1  UNL1        0.1396
     35 N         139.8080  142.1859  164.0994 N.ar    1  UNL1       -0.1335
     36 N         139.7613  142.4127  165.5814 N.ar    1  UNL1       -0.1277
     37 C         141.1640  142.3333  166.1068 C.ar    1  UNL1        0.1807
     38 N         142.0776  142.0575  164.9496 N.ar    1  UNL1       -0.3234
     39 H         143.0556  141.9544  164.9961 H       1  UNL1        0.1686
     40 C         141.5801  142.5005  167.5382 C.ar    1  UNL1        0.1169
     41 C         142.9760  142.1481  167.9596 C.ar    1  UNL1        0.0223
     42 C         143.3921  142.3153  169.3910 C.ar    1  UNL1        0.0032
     43 C         142.4124  142.8348  170.4010 C.ar    1  UNL1        0.0207
     44 C         141.0165  143.1871  169.9797 C.ar    1  UNL1        0.0989
     45 N         140.6004  143.0200  168.5483 N.ar    1  UNL1       -0.2407
@<TRIPOS>BOND
     1     7     8    1
     2     8     9   ar
     3     9    10   ar
     4    10    11   ar
     5    11    12   ar
     6    12    13   ar
     7    13    14   ar
     8    14    21    1
     9    21    22   ar
    10    22    23   ar
    11    23    24   ar
    12    24    25   ar
    13    25    26   ar
    14    14    15   ar
    15    15     1    1
    16     1     2   ar
    17     2     3   ar
    18     3     4   ar
    19     4    27    1
    20    27    28    1
    21    28    29    1
    22    29    30    1
    23    30    31    1
    24    31    34    1
    25    34    35   ar
    26    35    36   ar
    27    36    37   ar
    28    37    40    1
    29    40    41   ar
    30    41    42   ar
    31    42    43   ar
    32    43    44   ar
    33    44    45   ar
    34    37    38   ar
    35    31    32    1
    36    32    33    1
    37     4     5   ar
    38     5     6   ar
    39    15    16   ar
    40    16    17   ar
    41    17    18   ar
    42    18    19   ar
    43    19    20   ar
    44    20     8   ar
    45    20    11   ar
    46    17    12   ar
    47    26    21   ar
    48     6     1   ar
    49    33    28    1
    50    38    34   ar
    51    45    40   ar
    52    38    39    1
@<TRIPOS>MOLECULE
*****
 45 52 0 0 0
SMALL
GASTEIGER

@<TRIPOS>ATOM
      1 C         140.9079  140.1818  162.1330 C.ar    1  UNL1        0.0176
      2 C         141.8941  139.1505  161.6709 C.ar    1  UNL1        0.0012
      3 C         142.2362  139.0393  160.2146 C.ar    1  UNL1       -0.0029
      4 C         141.5920  139.9595  159.2205 C.ar    1  UNL1       -0.0061
      5 C         140.6058  140.9909  159.6827 C.ar    1  UNL1       -0.0029
      6 C         140.2637  141.1020  161.1389 C.ar    1  UNL1        0.0012
      7 C         137.4130  139.4416  170.9810 C.3     1  UNL1        0.0742
      8 C         138.3562  140.0810  170.0056 C.ar    1  UNL1        0.1475
      9 N         139.3445  141.1658  170.3163 N.ar    1  UNL1       -0.1330
     10 N         140.0758  141.5031  169.0508 N.ar    1  UNL1       -0.1287
     11 C         139.5395  140.6267  167.9579 C.ar    1  UNL1        0.1715
     12 C         139.8816  140.5155  166.5017 C.ar    1  UNL1        0.0540
     13 C         140.9443  141.3944  165.9117 C.ar    1  UNL1        0.0061
     14 C         141.2864  141.2831  164.4555 C.ar    1  UNL1        0.0178
     15 C         140.5657  140.2930  163.5893 C.ar    1  UNL1        0.0812
     16 N         139.5030  139.4142  164.1793 N.ar    1  UNL1       -0.2452
     17 C         139.1609  139.5254  165.6356 C.ar    1  UNL1        0.0857
     18 C         138.0982  138.6465  166.2255 C.ar    1  UNL1        0.0383
     19 C         137.7561  138.7577  167.6818 C.ar    1  UNL1        0.0841
     20 N         138.4768  139.7479  168.5480 N.ar    1  UNL1       -0.2758
     21 C         142.3492  142.1620  163.8655 C.ar    1  UNL1        0.0015
     22 C         143.7581  141.6605  163.7492 C.ar    1  UNL1        0.0000
     23 C         144.8207  142.5394  163.1592 C.ar    1  UNL1        0.0000
     24 C         144.4746  143.9200  162.6855 C.ar    1  UNL1        0.0000
     25 C         143.0657  144.4215  162.8018 C.ar    1  UNL1        0.0000
     26 C         142.0030  143.5425  163.3918 C.ar    1  UNL1        0.0000
     27 C         141.9341  139.8483  157.7643 C.3     1  UNL1        0.0991
     28 N         141.9109  138.5093  157.0886 N.3     1  UNL1       -0.2689
     29 C         143.1943  137.7773  156.8299 C.3     1  UNL1        0.0728
     30 C         143.1711  136.4384  156.1542 C.3     1  UNL1        0.0249
     31 C         141.8643  135.8314  155.7371 C.3     1  UNL1        0.0613
     32 C         140.5808  136.5634  155.9958 C.3     1  UNL1        0.0249
     33 C         140.6041  137.9023  156.6715 C.3     1  UNL1        0.0728
     34 C         141.8410  134.4925  155.0614 C.ar    1  UNL1        0.1396
     35 N         142.1544  134.2273  153.6187 N.ar    1  UNL1       -0.1335
     36 N         142.0073  132.7546  153.3754 N.ar    1  UNL1       -0.1277
     37 C         141.6030  132.1093  154.6677 C.ar    1  UNL1        0.1807
     38 N         141.5002  133.1834  155.7098 N.ar    1  UNL1       -0.3234
     39 H         141.2526  133.0522  156.6535 H       1  UNL1        0.1686
     40 C         141.3465  130.6469  154.8808 C.ar    1  UNL1        0.1169
     41 C         139.9674  130.0907  154.6835 C.ar    1  UNL1        0.0223
     42 C         139.7110  128.6282  154.8965 C.ar    1  UNL1        0.0032
     43 C         140.8336  127.7219  155.3068 C.ar    1  UNL1        0.0207
     44 C         142.2127  128.2781  155.5041 C.ar    1  UNL1        0.0989
     45 N         142.4691  129.7406  155.2911 N.ar    1  UNL1       -0.2407
@<TRIPOS>BOND
     1     7     8    1
     2     8     9   ar
     3     9    10   ar
     4    10    11   ar
     5    11    12   ar
     6    12    13   ar
     7    13    14   ar
     8    14    21    1
     9    21    22   ar
    10    22    23   ar
    11    23    24   ar
    12    24    25   ar
    13    25    26   ar
    14    14    15   ar
    15    15     1    1
    16     1     2   ar
    17     2     3   ar
    18     3     4   ar
    19     4    27    1
    20    27    28    1
    21    28    29    1
    22    29    30    1
    23    30    31    1
    24    31    34    1
    25    34    35   ar
    26    35    36   ar
    27    36    37   ar
    28    37    40    1
    29    40    41   ar
    30    41    42   ar
    31    42    43   ar
    32    43    44   ar
    33    44    45   ar
    34    37    38   ar
    35    31    32    1
    36    32    33    1
    37     4     5   ar
    38     5     6   ar
    39    15    16   ar
    40    16    17   ar
    41    17    18   ar
    42    18    19   ar
    43    19    20   ar
    44    20     8   ar
    45    20    11   ar
    46    17    12   ar
    47    26    21   ar
    48     6     1   ar
    49    33    28    1
    50    38    34   ar
    51    45    40   ar
    52    38    39    1
@<TRIPOS>MOLECULE
*****
 45 52 0 0 0
SMALL
GASTEIGER

@<TRIPOS>ATOM
      1 C         139.3789  145.1886  156.4316 C.ar    1  UNL1        0.0176
      2 C         140.2876  144.8569  157.5779 C.ar    1  UNL1        0.0012
      3 C         140.1499  143.5428  158.2882 C.ar    1  UNL1       -0.0029
      4 C         139.1034  142.5606  157.8520 C.ar    1  UNL1       -0.0061
      5 C         138.1947  142.8924  156.7057 C.ar    1  UNL1       -0.0029
      6 C         138.3324  144.2064  155.9954 C.ar    1  UNL1        0.0012
      7 C         139.0637  154.2219  153.3738 C.3     1  UNL1        0.0742
      8 C         139.5522  152.8126  153.2154 C.ar    1  UNL1        0.1475
      9 N         140.4446  152.3065  152.1212 N.ar    1  UNL1       -0.1330
     10 N         140.6780  150.8430  152.3529 N.ar    1  UNL1       -0.1287
     11 C         139.9297  150.4445  153.5903 C.ar    1  UNL1        0.1715
     12 C         139.7920  149.1306  154.3007 C.ar    1  UNL1        0.0540
     13 C         140.4877  147.9133  153.7676 C.ar    1  UNL1        0.0061
     14 C         140.3500  146.5993  154.4779 C.ar    1  UNL1        0.0178
     15 C         139.5166  146.5027  155.7213 C.ar    1  UNL1        0.0812
     16 N         138.8208  147.7199  156.2543 N.ar    1  UNL1       -0.2452
     17 C         138.9585  149.0339  155.5440 C.ar    1  UNL1        0.0857
     18 C         138.2628  150.2511  156.0770 C.ar    1  UNL1        0.0383
     19 C         138.4004  151.5651  155.3667 C.ar    1  UNL1        0.0841
     20 N         139.2339  151.6618  154.1234 N.ar    1  UNL1       -0.2758
     21 C         141.0459  145.3821  153.9448 C.ar    1  UNL1        0.0015
     22 C         140.3778  144.5308  152.9060 C.ar    1  UNL1        0.0000
     23 C         141.0736  143.3137  152.3730 C.ar    1  UNL1        0.0000
     24 C         142.4376  142.9476  152.8787 C.ar    1  UNL1        0.0000
     25 C         143.1056  143.7989  153.9175 C.ar    1  UNL1        0.0000
     26 C         142.4098  145.0161  154.4505 C.ar    1  UNL1        0.0000
     27 C         138.9657  141.2466  158.5622 C.3     1  UNL1        0.0991
     28 N         139.1265  141.1790  160.0521 N.3     1  UNL1       -0.2689
     29 C         140.2597  140.3988  160.6496 C.3     1  UNL1        0.0728
     30 C         140.4204  140.3312  162.1394 C.3     1  UNL1        0.0249
     31 C         139.4478  141.0437  163.0318 C.3     1  UNL1        0.0613
     32 C         138.3145  141.8239  162.4343 C.3     1  UNL1        0.0249
     33 C         138.1539  141.8915  160.9445 C.3     1  UNL1        0.0728
     34 C         139.6085  140.9761  164.5215 C.ar    1  UNL1        0.1396
     35 N         138.8651  140.0600  165.4479 N.ar    1  UNL1       -0.1335
     36 N         139.3379  140.3304  166.8455 N.ar    1  UNL1       -0.1277
     37 C         140.3736  141.4136  166.7830 C.ar    1  UNL1        0.1807
     38 N         140.5408  141.8127  165.3467 N.ar    1  UNL1       -0.3234
     39 H         141.1548  142.5026  165.0055 H       1  UNL1        0.1686
     40 C         141.1124  141.9956  167.9514 C.ar    1  UNL1        0.1169
     41 C         140.4420  143.0055  168.8352 C.ar    1  UNL1        0.0223
     42 C         141.1809  143.5875  170.0037 C.ar    1  UNL1        0.0032
     43 C         142.5901  143.1597  170.2885 C.ar    1  UNL1        0.0207
     44 C         143.2605  142.1499  169.4048 C.ar    1  UNL1        0.0989
     45 N         142.5216  141.5678  168.2362 N.ar    1  UNL1       -0.2407
@<TRIPOS>BOND
     1     7     8    1
     2     8     9   ar
     3     9    10   ar
     4    10    11   ar
     5    11    12   ar
     6    12    13   ar
     7    13    14   ar
     8    14    21    1
     9    21    22   ar
    10    22    23   ar
    11    23    24   ar
    12    24    25   ar
    13    25    26   ar
    14    14    15   ar
    15    15     1    1
    16     1     2   ar
    17     2     3   ar
    18     3     4   ar
    19     4    27    1
    20    27    28    1
    21    28    29    1
    22    29    30    1
    23    30    31    1
    24    31    34    1
    25    34    35   ar
    26    35    36   ar
    27    36    37   ar
    28    37    40    1
    29    40    41   ar
    30    41    42   ar
    31    42    43   ar
    32    43    44   ar
    33    44    45   ar
    34    37    38   ar
    35    31    32    1
    36    32    33    1
    37     4     5   ar
    38     5     6   ar
    39    15    16   ar
    40    16    17   ar
    41    17    18   ar
    42    18    19   ar
    43    19    20   ar
    44    20     8   ar
    45    20    11   ar
    46    17    12   ar
    47    26    21   ar
    48     6     1   ar
    49    33    28    1
    50    38    34   ar
    51    45    40   ar
    52    38    39    1
