@<TRIPOS>MOLECULE
*****
 18 20 0 0 0
SMALL
GASTEIGER

@<TRIPOS>ATOM
      1 C         139.0275  139.6208  166.2656 C.ar    1  UNL1        0.1646
      2 N         139.0881  139.5514  167.7628 N.ar    1  UNL1       -0.2241
      3 C         139.7963  140.7786  168.2554 C.ar    1  UNL1        0.0893
      4 C         140.1733  141.6064  167.0626 C.ar    1  UNL1        0.0570
      5 S         139.6981  140.8909  165.8329 S.2     1  UNL1       -0.0509
      6 C         140.0780  141.1183  169.6890 C.2     1  UNL1        0.0431
      7 C         139.8595  142.4528  170.3382 C.2     1  UNL1        0.1210
      8 N         140.2741  142.3424  171.7755 N.2     1  UNL1       -0.1510
      9 N         140.7488  140.9397  172.0146 N.2     1  UNL1       -0.1694
     10 C         140.6276  140.1832  170.7250 C.3     1  UNL1        0.1786
     11 N         138.4054  138.5995  165.3601 N.pl3   1  UNL1       -0.2782
     12 H         137.6879  138.0153  165.6966 H       1  UNL1        0.1555
     13 C         139.8185  138.2058  161.1060 C.ar    1  UNL1        0.0208
     14 C         140.6474  137.6506  162.2260 C.ar    1  UNL1        0.0045
     15 C         140.1764  137.7818  163.6441 C.ar    1  UNL1        0.0345
     16 C         138.8764  138.4683  163.9421 C.ar    1  UNL1        0.1336
     17 N         138.0475  139.0235  162.8220 N.ar    1  UNL1       -0.2290
     18 C         138.5186  138.8923  161.4040 C.ar    1  UNL1        0.1003
@<TRIPOS>BOND
     1    13    14   ar
     2    14    15   ar
     3    15    16   ar
     4    16    11    1
     5    11     1    1
     6     1     2   ar
     7     2     3   ar
     8     3     6    1
     9     6     7    2
    10     7     8    1
    11     8     9    2
    12     9    10    1
    13     3     4   ar
    14     4     5   ar
    15    16    17   ar
    16    17    18   ar
    17    18    13   ar
    18     5     1   ar
    19    10     6    1
    20    11    12    1
@<TRIPOS>MOLECULE
*****
 18 20 0 0 0
SMALL
GASTEIGER

@<TRIPOS>ATOM
      1 C         140.0665  141.3307  165.7362 C.ar    1  UNL1        0.1646
      2 N         140.4737  141.9423  167.0440 N.ar    1  UNL1       -0.2241
      3 C         140.0069  141.0364  168.1447 C.ar    1  UNL1        0.0893
      4 C         139.3111  139.8649  167.5172 C.ar    1  UNL1        0.0570
      5 S         139.3479  140.0468  166.0287 S.2     1  UNL1       -0.0509
      6 C         140.2016  141.2623  169.6148 C.2     1  UNL1        0.0431
      7 C         140.0340  142.5667  170.3361 C.2     1  UNL1        0.1210
      8 N         140.3269  142.3340  171.7887 N.2     1  UNL1       -0.1510
      9 N         140.6756  140.8858  171.9651 N.2     1  UNL1       -0.1694
     10 C         140.5981  140.2234  170.6214 C.3     1  UNL1        0.1786
     11 N         140.3313  141.9025  164.3750 N.pl3   1  UNL1       -0.2782
     12 H         139.8055  141.5955  163.6014 H       1  UNL1        0.1555
     13 C         143.5289  145.0211  163.8277 C.ar    1  UNL1        0.0208
     14 C         142.0820  145.4132  163.7753 C.ar    1  UNL1        0.0045
     15 C         141.0162  144.3737  163.9577 C.ar    1  UNL1        0.0345
     16 C         141.3971  142.9420  164.1926 C.ar    1  UNL1        0.1336
     17 N         142.8440  142.5499  164.2450 N.ar    1  UNL1       -0.2290
     18 C         143.9099  143.5895  164.0626 C.ar    1  UNL1        0.1003
@<TRIPOS>BOND
     1    13    14   ar
     2    14    15   ar
     3    15    16   ar
     4    16    11    1
     5    11     1    1
     6     1     2   ar
     7     2     3   ar
     8     3     6    1
     9     6     7    2
    10     7     8    1
    11     8     9    2
    12     9    10    1
    13     3     4   ar
    14     4     5   ar
    15    16    17   ar
    16    17    18   ar
    17    18    13   ar
    18     5     1   ar
    19    10     6    1
    20    11    12    1
@<TRIPOS>MOLECULE
*****
 18 20 0 0 0
SMALL
GASTEIGER

@<TRIPOS>ATOM
      1 C         140.6775  140.2569  165.6961 C.ar    1  UNL1        0.1646
      2 N         141.1545  140.9373  166.9450 N.ar    1  UNL1       -0.2241
      3 C         140.1963  140.6032  168.0497 C.ar    1  UNL1        0.0893
      4 C         139.1271  139.7164  167.4836 C.ar    1  UNL1        0.0570
      5 S         139.4245  139.5024  166.0291 S.2     1  UNL1       -0.0509
      6 C         140.2908  141.0735  169.4710 C.2     1  UNL1        0.0431
      7 C         140.0198  142.4658  169.9588 C.2     1  UNL1        0.1210
      8 N         140.2343  142.4867  171.4432 N.2     1  UNL1       -0.1510
      9 N         140.6378  141.1074  171.8728 N.2     1  UNL1       -0.1694
     10 C         140.6727  140.2339  170.6538 C.3     1  UNL1        0.1786
     11 N         141.3375  140.3199  164.3506 N.pl3   1  UNL1       -0.2782
     12 H         140.8408  140.0476  163.5454 H       1  UNL1        0.1555
     13 C         145.5881  141.7538  163.9946 C.ar    1  UNL1        0.0208
     14 C         145.2981  140.2859  164.0999 C.ar    1  UNL1        0.0045
     15 C         143.8812  139.8079  164.2186 C.ar    1  UNL1        0.0345
     16 C         142.7544  140.7979  164.2320 C.ar    1  UNL1        0.1336
     17 N         143.0444  142.2658  164.1266 N.ar    1  UNL1       -0.2290
     18 C         144.4613  142.7437  164.0079 C.ar    1  UNL1        0.1003
@<TRIPOS>BOND
     1    13    14   ar
     2    14    15   ar
     3    15    16   ar
     4    16    11    1
     5    11     1    1
     6     1     2   ar
     7     2     3   ar
     8     3     6    1
     9     6     7    2
    10     7     8    1
    11     8     9    2
    12     9    10    1
    13     3     4   ar
    14     4     5   ar
    15    16    17   ar
    16    17    18   ar
    17    18    13   ar
    18     5     1   ar
    19    10     6    1
    20    11    12    1
@<TRIPOS>MOLECULE
*****
 18 20 0 0 0
SMALL
GASTEIGER

@<TRIPOS>ATOM
      1 C         137.9085  142.4486  162.7834 C.ar    1  UNL1        0.1646
      2 N         138.9405  142.4189  161.6953 N.ar    1  UNL1       -0.2241
      3 C         139.4873  143.8068  161.5371 C.ar    1  UNL1        0.0893
      4 C         138.7932  144.6942  162.5274 C.ar    1  UNL1        0.0570
      5 S         137.8174  143.8548  163.2977 S.2     1  UNL1       -0.0509
      6 C         140.5429  144.2325  160.5600 C.2     1  UNL1        0.0431
      7 C         140.4963  145.4515  159.6873 C.2     1  UNL1        0.1210
      8 N         141.7550  145.4863  158.8721 N.2     1  UNL1       -0.1510
      9 N         142.5794  144.2887  159.2410 N.2     1  UNL1       -0.1694
     10 C         141.8302  143.5138  160.2842 C.3     1  UNL1        0.1786
     11 N         137.1080  141.2777  163.2716 N.pl3   1  UNL1       -0.2782
     12 H         136.1244  141.3184  163.2687 H       1  UNL1        0.1555
     13 C         139.2028  137.5792  164.7492 C.ar    1  UNL1        0.0208
     14 C         138.9387  137.7566  163.2834 C.ar    1  UNL1        0.0045
     15 C         138.2405  138.9894  162.7908 C.ar    1  UNL1        0.0345
     16 C         137.8063  140.0449  163.7641 C.ar    1  UNL1        0.1336
     17 N         138.0704  139.8676  165.2300 N.ar    1  UNL1       -0.2290
     18 C         138.7686  138.6347  165.7225 C.ar    1  UNL1        0.1003
@<TRIPOS>BOND
     1    13    14   ar
     2    14    15   ar
     3    15    16   ar
     4    16    11    1
     5    11     1    1
     6     1     2   ar
     7     2     3   ar
     8     3     6    1
     9     6     7    2
    10     7     8    1
    11     8     9    2
    12     9    10    1
    13     3     4   ar
    14     4     5   ar
    15    16    17   ar
    16    17    18   ar
    17    18    13   ar
    18     5     1   ar
    19    10     6    1
    20    11    12    1
@<TRIPOS>MOLECULE
*****
 18 20 0 0 0
SMALL
GASTEIGER

@<TRIPOS>ATOM
      1 C         141.8253  142.1788  165.7992 C.ar    1  UNL1        0.1646
      2 N         140.8721  142.2042  166.9571 N.ar    1  UNL1       -0.2241
      3 C         141.6790  142.2496  168.2209 C.ar    1  UNL1        0.0893
      4 C         143.1310  142.2524  167.8439 C.ar    1  UNL1        0.0570
      5 S         143.2213  142.2086  166.3472 S.2     1  UNL1       -0.0509
      6 C         141.1304  142.2860  169.6164 C.2     1  UNL1        0.0431
      7 C         141.6335  141.4879  170.7826 C.2     1  UNL1        0.1210
      8 N         140.7964  141.8355  171.9777 N.2     1  UNL1       -0.1510
      9 N         139.7760  142.8483  171.5502 N.2     1  UNL1       -0.1694
     10 C         139.9824  143.1268  170.0908 C.3     1  UNL1        0.1786
     11 N         141.4486  142.1319  164.3480 N.pl3   1  UNL1       -0.2782
     12 H         142.0128  141.6398  163.7087 H       1  UNL1        0.1555
     13 C         137.7398  144.2406  162.9168 C.ar    1  UNL1        0.0208
     14 C         137.6798  142.7898  163.2929 C.ar    1  UNL1        0.0045
     15 C         138.9161  142.0869  163.7700 C.ar    1  UNL1        0.0345
     16 C         140.2124  142.8348  163.8709 C.ar    1  UNL1        0.1336
     17 N         140.2724  144.2856  163.4947 N.ar    1  UNL1       -0.2290
     18 C         139.0361  144.9885  163.0177 C.ar    1  UNL1        0.1003
@<TRIPOS>BOND
     1    13    14   ar
     2    14    15   ar
     3    15    16   ar
     4    16    11    1
     5    11     1    1
     6     1     2   ar
     7     2     3   ar
     8     3     6    1
     9     6     7    2
    10     7     8    1
    11     8     9    2
    12     9    10    1
    13     3     4   ar
    14     4     5   ar
    15    16    17   ar
    16    17    18   ar
    17    18    13   ar
    18     5     1   ar
    19    10     6    1
    20    11    12    1
@<TRIPOS>MOLECULE
*****
 18 20 0 0 0
SMALL
GASTEIGER

@<TRIPOS>ATOM
      1 C         139.4063  140.1768  166.7542 C.ar    1  UNL1        0.1646
      2 N         139.3938  141.4916  166.0323 N.ar    1  UNL1       -0.2241
      3 C         138.5952  141.3219  164.7738 C.ar    1  UNL1        0.0893
      4 C         138.1141  139.9022  164.7181 C.ar    1  UNL1        0.0570
      5 S         138.6153  139.1945  165.9420 S.2     1  UNL1       -0.0509
      6 C         138.3251  142.3852  163.7509 C.2     1  UNL1        0.0431
      7 C         138.2866  142.1890  162.2643 C.2     1  UNL1        0.1210
      8 N         137.9838  143.5139  161.6296 N.2     1  UNL1       -0.1510
      9 N         137.8352  144.5289  162.7239 N.2     1  UNL1       -0.1694
     10 C         138.0461  143.8314  164.0350 C.3     1  UNL1        0.1786
     11 N         140.0896  139.8939  168.0592 N.pl3   1  UNL1       -0.2782
     12 H         140.0029  139.0073  168.4782 H       1  UNL1        0.1555
     13 C         142.5359  143.0980  170.0590 C.ar    1  UNL1        0.0208
     14 C         141.0395  143.1991  170.0399 C.ar    1  UNL1        0.0045
     15 C         140.2240  142.1311  169.3733 C.ar    1  UNL1        0.0345
     16 C         140.9050  140.9620  168.7258 C.ar    1  UNL1        0.1336
     17 N         142.4015  140.8608  168.7449 N.ar    1  UNL1       -0.2290
     18 C         143.2169  141.9289  169.4115 C.ar    1  UNL1        0.1003
@<TRIPOS>BOND
     1    13    14   ar
     2    14    15   ar
     3    15    16   ar
     4    16    11    1
     5    11     1    1
     6     1     2   ar
     7     2     3   ar
     8     3     6    1
     9     6     7    2
    10     7     8    1
    11     8     9    2
    12     9    10    1
    13     3     4   ar
    14     4     5   ar
    15    16    17   ar
    16    17    18   ar
    17    18    13   ar
    18     5     1   ar
    19    10     6    1
    20    11    12    1
@<TRIPOS>MOLECULE
*****
 18 20 0 0 0
SMALL
GASTEIGER

@<TRIPOS>ATOM
      1 C         141.6889  141.8877  165.7987 C.ar    1  UNL1        0.1646
      2 N         140.8123  141.6937  167.0004 N.ar    1  UNL1       -0.2241
      3 C         141.6609  141.8637  168.2256 C.ar    1  UNL1        0.0893
      4 C         143.0620  142.1627  167.7811 C.ar    1  UNL1        0.0570
      5 S         143.0793  142.1776  166.2813 S.2     1  UNL1       -0.0509
      6 C         141.1910  141.7538  169.6458 C.2     1  UNL1        0.0431
      7 C         140.6221  142.8670  170.4748 C.2     1  UNL1        0.1210
      8 N         140.2869  142.3127  171.8277 N.2     1  UNL1       -0.1510
      9 N         140.6487  140.8570  171.8349 N.2     1  UNL1       -0.1694
     10 C         141.2075  140.5116  170.4863 C.3     1  UNL1        0.1786
     11 N         141.2519  141.8062  164.3661 N.pl3   1  UNL1       -0.2782
     12 H         141.7121  141.1966  163.7450 H       1  UNL1        0.1555
     13 C         137.8369  144.3478  162.9074 C.ar    1  UNL1        0.0208
     14 C         138.8242  144.9090  163.8873 C.ar    1  UNL1        0.0045
     15 C         139.9625  144.0618  164.3735 C.ar    1  UNL1        0.0345
     16 C         140.1135  142.6534  163.8799 C.ar    1  UNL1        0.1336
     17 N         139.1262  142.0923  162.9000 N.ar    1  UNL1       -0.2290
     18 C         137.9879  142.9395  162.4137 C.ar    1  UNL1        0.1003
@<TRIPOS>BOND
     1    13    14   ar
     2    14    15   ar
     3    15    16   ar
     4    16    11    1
     5    11     1    1
     6     1     2   ar
     7     2     3   ar
     8     3     6    1
     9     6     7    2
    10     7     8    1
    11     8     9    2
    12     9    10    1
    13     3     4   ar
    14     4     5   ar
    15    16    17   ar
    16    17    18   ar
    17    18    13   ar
    18     5     1   ar
    19    10     6    1
    20    11    12    1
@<TRIPOS>MOLECULE
*****
 18 20 0 0 0
SMALL
GASTEIGER

@<TRIPOS>ATOM
      1 C         141.6058  141.7793  165.6040 C.ar    1  UNL1        0.1646
      2 N         140.8072  141.7840  166.8737 N.ar    1  UNL1       -0.2241
      3 C         141.7386  142.1010  168.0060 C.ar    1  UNL1        0.0893
      4 C         143.1129  142.2923  167.4361 C.ar    1  UNL1        0.0570
      5 S         143.0308  142.0935  165.9516 S.2     1  UNL1       -0.0509
      6 C         141.3618  142.2080  169.4540 C.2     1  UNL1        0.0431
      7 C         140.0214  142.6175  169.9883 C.2     1  UNL1        0.1210
      8 N         140.0905  142.5868  171.4864 N.2     1  UNL1       -0.1510
      9 N         141.4737  142.1584  171.8779 N.2     1  UNL1       -0.1694
     10 C         142.2594  141.9243  170.6218 C.3     1  UNL1        0.1786
     11 N         141.0731  141.5082  164.2283 N.pl3   1  UNL1       -0.2782
     12 H         141.1998  142.1713  163.5117 H       1  UNL1        0.1555
     13 C         138.8956  137.6634  163.3761 C.ar    1  UNL1        0.0208
     14 C         140.0923  137.6630  164.2804 C.ar    1  UNL1        0.0045
     15 C         140.8182  138.9446  164.5644 C.ar    1  UNL1        0.0345
     16 C         140.3472  140.2266  163.9442 C.ar    1  UNL1        0.1336
     17 N         139.1505  140.2270  163.0400 N.ar    1  UNL1       -0.2290
     18 C         138.4246  138.9454  162.7559 C.ar    1  UNL1        0.1003
@<TRIPOS>BOND
     1    13    14   ar
     2    14    15   ar
     3    15    16   ar
     4    16    11    1
     5    11     1    1
     6     1     2   ar
     7     2     3   ar
     8     3     6    1
     9     6     7    2
    10     7     8    1
    11     8     9    2
    12     9    10    1
    13     3     4   ar
    14     4     5   ar
    15    16    17   ar
    16    17    18   ar
    17    18    13   ar
    18     5     1   ar
    19    10     6    1
    20    11    12    1
@<TRIPOS>MOLECULE
*****
 18 20 0 0 0
SMALL
GASTEIGER

@<TRIPOS>ATOM
      1 C         139.4301  139.4785  166.9577 C.ar    1  UNL1        0.1646
      2 N         140.5638  139.3940  165.9791 N.ar    1  UNL1       -0.2241
      3 C         140.0965  138.5991  164.7959 C.ar    1  UNL1        0.0893
      4 C         138.6740  138.1923  165.0433 C.ar    1  UNL1        0.0570
      5 S         138.2622  138.7358  166.3793 S.2     1  UNL1       -0.0509
      6 C         140.9091  138.2689  163.5791 C.2     1  UNL1        0.0431
      7 C         140.3670  137.8718  162.2381 C.2     1  UNL1        0.1210
      8 N         141.5292  137.6353  161.3198 N.2     1  UNL1       -0.1510
      9 N         142.7896  137.8864  162.0933 N.2     1  UNL1       -0.1694
     10 C         142.4063  138.2779  163.4896 C.3     1  UNL1        0.1786
     11 N         139.4592  140.1821  168.2821 N.pl3   1  UNL1       -0.2782
     12 H         138.6223  140.3313  168.7787 H       1  UNL1        0.1555
     13 C         143.3716  141.6114  169.9852 C.ar    1  UNL1        0.0208
     14 C         142.8872  140.2230  170.2813 C.ar    1  UNL1        0.0045
     15 C         141.5831  139.7466  169.7136 C.ar    1  UNL1        0.0345
     16 C         140.7633  140.6586  168.8498 C.ar    1  UNL1        0.1336
     17 N         141.2477  142.0469  168.5537 N.ar    1  UNL1       -0.2290
     18 C         142.5518  142.5234  169.1214 C.ar    1  UNL1        0.1003
@<TRIPOS>BOND
     1    13    14   ar
     2    14    15   ar
     3    15    16   ar
     4    16    11    1
     5    11     1    1
     6     1     2   ar
     7     2     3   ar
     8     3     6    1
     9     6     7    2
    10     7     8    1
    11     8     9    2
    12     9    10    1
    13     3     4   ar
    14     4     5   ar
    15    16    17   ar
    16    17    18   ar
    17    18    13   ar
    18     5     1   ar
    19    10     6    1
    20    11    12    1
