@<TRIPOS>MOLECULE
*****
 32 36 0 0 0
SMALL
GASTEIGER

@<TRIPOS>ATOM
      1 N         140.2973  144.7585  160.2127 N.3     1  UNL1       -0.2710
      2 C         140.0120  145.5881  161.4294 C.3     1  UNL1        0.0728
      3 C         139.9463  144.9399  162.7805 C.3     1  UNL1        0.0298
      4 C         140.1659  143.4622  162.9148 C.3     1  UNL1        0.1147
      5 C         140.4512  142.6326  161.6981 C.3     1  UNL1        0.0298
      6 C         140.5169  143.2808  160.3470 C.3     1  UNL1        0.0728
      7 C         140.1001  142.8139  164.2660 C.2     1  UNL1        0.3507
      8 N         140.5839  143.4103  165.5545 N.2     1  UNL1       -0.0350
      9 C         140.3219  142.4205  166.6507 C.2     1  UNL1        0.2324
     10 C         140.5878  142.4632  168.1263 C.2     1  UNL1        0.0601
     11 C         140.2080  141.2977  168.9908 C.2     1  UNL1        0.0685
     12 C         139.5624  140.0895  168.3798 C.2     1  UNL1       -0.0069
     13 C         139.2964  140.0468  166.9041 C.3     1  UNL1        0.1044
     14 C         139.6762  141.2123  166.0396 C.2     1  UNL1        0.2175
     15 N         139.5392  141.4554  164.5658 N.2     1  UNL1       -0.0389
     16 C         140.4739  141.3404  170.4664 C.1     1  UNL1        0.1002
     17 N         140.7398  141.3830  171.9421 N.1     1  UNL1       -0.1908
     18 C         140.3631  145.4068  158.8615 C.3     1  UNL1        0.0970
     19 C         140.4613  144.5600  157.6274 C.3     1  UNL1        0.1264
     20 C         137.7003  141.0066  157.6358 C.ar    1  UNL1        0.1593
     21 C         136.5513  140.9474  156.6734 C.ar    1  UNL1        0.1357
     22 N         136.3226  142.0726  155.7082 N.ar    1  UNL1       -0.2392
     23 C         137.2429  143.2570  155.7054 C.ar    1  UNL1        0.0975
     24 C         137.0143  144.3822  154.7402 C.ar    1  UNL1        0.0255
     25 C         137.9346  145.5666  154.7373 C.ar    1  UNL1        0.0623
     26 C         139.0837  145.6259  155.6997 C.ar    1  UNL1        0.2611
     27 O         140.0040  146.8103  155.6969 O.2     1  UNL1       -0.2670
     28 N         139.3123  144.5007  156.6650 N.ar    1  UNL1       -0.2926
     29 C         138.3919  143.3162  156.6678 C.ar    1  UNL1        0.0832
     30 C         138.6206  142.1910  157.6330 C.ar    1  UNL1        0.0573
     31 C         137.8032  140.1216  160.0763 C.3     1  UNL1        0.2525
     32 O         137.9290  139.8814  158.6010 O.3     1  UNL1       -0.4698
@<TRIPOS>BOND
     1    31    32    1
     2    32    20    1
     3    20    21   ar
     4    21    22   ar
     5    22    23   ar
     6    23    24   ar
     7    24    25   ar
     8    25    26   ar
     9    26    27    2
    10    26    28   ar
    11    28    19    1
    12    19    18    1
    13    18     1    1
    14     1     2    1
    15     2     3    1
    16     3     4    1
    17     4     7    1
    18     7     8    2
    19     8     9    1
    20     9    10    2
    21    10    11    1
    22    11    16    1
    23    16    17    3
    24    11    12    2
    25    12    13    1
    26    13    14    1
    27    14    15    2
    28     4     5    1
    29     5     6    1
    30    28    29   ar
    31    29    30   ar
    32    30    20   ar
    33    29    23   ar
    34     6     1    1
    35    15     7    1
    36    14     9    1
@<TRIPOS>MOLECULE
*****
 32 36 0 0 0
SMALL
GASTEIGER

@<TRIPOS>ATOM
      1 N         142.5120  142.3693  165.4236 N.3     1  UNL1       -0.2710
      2 C         143.5919  142.2260  164.3924 C.3     1  UNL1        0.0728
      3 C         143.3772  142.7507  163.0037 C.3     1  UNL1        0.0298
      4 C         142.0826  143.4186  162.6462 C.3     1  UNL1        0.1147
      5 C         141.0027  143.5619  163.6774 C.3     1  UNL1        0.0298
      6 C         141.2174  143.0372  165.0661 C.3     1  UNL1        0.0728
      7 C         141.8678  143.9433  161.2574 C.2     1  UNL1        0.3507
      8 N         140.7513  144.8434  160.8178 N.2     1  UNL1       -0.0350
      9 C         140.9253  145.1165  159.3532 C.2     1  UNL1        0.2324
     10 C         140.1272  145.9365  158.3834 C.2     1  UNL1        0.0601
     11 C         140.5533  146.0253  156.9479 C.2     1  UNL1        0.0685
     12 C         141.7774  145.2940  156.4822 C.2     1  UNL1       -0.0069
     13 C         142.5754  144.4739  157.4521 C.3     1  UNL1        0.1044
     14 C         142.1494  144.3851  158.8876 C.2     1  UNL1        0.2175
     15 N         142.7319  143.6601  160.0645 N.2     1  UNL1       -0.0389
     16 C         139.7553  146.8453  155.9780 C.1     1  UNL1        0.1002
     17 N         138.9572  147.6654  155.0081 N.1     1  UNL1       -0.1908
     18 C         142.7267  141.8446  166.8124 C.3     1  UNL1        0.0970
     19 C         142.4329  140.4072  167.1248 C.3     1  UNL1        0.1264
     20 C         141.6893  138.0701  163.3519 C.ar    1  UNL1        0.1593
     21 C         140.3274  137.5058  163.0754 C.ar    1  UNL1        0.1357
     22 N         139.2132  137.7204  164.0565 N.ar    1  UNL1       -0.2392
     23 C         139.4611  138.4994  165.3142 C.ar    1  UNL1        0.0975
     24 C         138.3469  138.7141  166.2953 C.ar    1  UNL1        0.0255
     25 C         138.5948  139.4931  167.5529 C.ar    1  UNL1        0.0623
     26 C         139.9568  140.0575  167.8295 C.ar    1  UNL1        0.2611
     27 O         140.2046  140.8365  169.0871 O.2     1  UNL1       -0.2670
     28 N         141.0709  139.8428  166.8483 N.ar    1  UNL1       -0.2926
     29 C         140.8230  139.0638  165.5906 C.ar    1  UNL1        0.0832
     30 C         141.9372  138.8491  164.6095 C.ar    1  UNL1        0.0573
     31 C         143.9978  138.7629  162.3818 C.3     1  UNL1        0.2525
     32 O         142.8035  137.8555  162.3707 O.3     1  UNL1       -0.4698
@<TRIPOS>BOND
     1    31    32    1
     2    32    20    1
     3    20    21   ar
     4    21    22   ar
     5    22    23   ar
     6    23    24   ar
     7    24    25   ar
     8    25    26   ar
     9    26    27    2
    10    26    28   ar
    11    28    19    1
    12    19    18    1
    13    18     1    1
    14     1     2    1
    15     2     3    1
    16     3     4    1
    17     4     7    1
    18     7     8    2
    19     8     9    1
    20     9    10    2
    21    10    11    1
    22    11    16    1
    23    16    17    3
    24    11    12    2
    25    12    13    1
    26    13    14    1
    27    14    15    2
    28     4     5    1
    29     5     6    1
    30    28    29   ar
    31    29    30   ar
    32    30    20   ar
    33    29    23   ar
    34     6     1    1
    35    15     7    1
    36    14     9    1
@<TRIPOS>MOLECULE
*****
 32 36 0 0 0
SMALL
GASTEIGER

@<TRIPOS>ATOM
      1 N         140.5687  143.1699  165.4092 N.3     1  UNL1       -0.2710
      2 C         139.3564  143.5936  164.6339 C.3     1  UNL1        0.0728
      3 C         139.4920  144.0135  163.2003 C.3     1  UNL1        0.0298
      4 C         140.8398  144.0096  162.5420 C.3     1  UNL1        0.1147
      5 C         142.0520  143.5859  163.3172 C.3     1  UNL1        0.0298
      6 C         141.9164  143.1660  164.7508 C.3     1  UNL1        0.0728
      7 C         140.9754  144.4295  161.1083 C.2     1  UNL1        0.3507
      8 N         140.0257  145.3128  160.3547 N.2     1  UNL1       -0.0350
      9 C         140.5478  145.4690  158.9572 C.2     1  UNL1        0.2324
     10 C         140.0291  146.2260  157.7707 C.2     1  UNL1        0.0601
     11 C         140.7826  146.1962  156.4740 C.2     1  UNL1        0.0685
     12 C         142.0549  145.4094  156.3639 C.2     1  UNL1       -0.0069
     13 C         142.5737  144.6524  157.5504 C.3     1  UNL1        0.1044
     14 C         141.8202  144.6822  158.8471 C.2     1  UNL1        0.2175
     15 N         142.0844  144.0397  160.1765 N.2     1  UNL1       -0.0389
     16 C         140.2639  146.9532  155.2875 C.1     1  UNL1        0.1002
     17 N         139.7452  147.7103  154.1010 N.1     1  UNL1       -0.1908
     18 C         140.4330  142.7500  166.8429 C.3     1  UNL1        0.0970
     19 C         140.1538  141.3156  167.1811 C.3     1  UNL1        0.1264
     20 C         139.0799  139.0537  163.4420 C.ar    1  UNL1        0.1593
     21 C         139.9867  137.9729  162.9328 C.ar    1  UNL1        0.1357
     22 N         141.2515  137.6459  163.6699 N.ar    1  UNL1       -0.2392
     23 C         141.6095  138.3998  164.9163 C.ar    1  UNL1        0.0975
     24 C         142.8742  138.0729  165.6534 C.ar    1  UNL1        0.0255
     25 C         143.2322  138.8268  166.8998 C.ar    1  UNL1        0.0623
     26 C         142.3254  139.9077  167.4090 C.ar    1  UNL1        0.2611
     27 O         142.6833  140.6617  168.6554 O.2     1  UNL1       -0.2670
     28 N         141.0606  140.2347  166.6719 N.ar    1  UNL1       -0.2926
     29 C         140.7026  139.4807  165.4255 C.ar    1  UNL1        0.0832
     30 C         139.4378  139.8077  164.6883 C.ar    1  UNL1        0.0573
     31 C         137.7321  139.1605  161.2234 C.3     1  UNL1        0.2525
     32 O         137.8151  139.3807  162.7048 O.3     1  UNL1       -0.4698
@<TRIPOS>BOND
     1    31    32    1
     2    32    20    1
     3    20    21   ar
     4    21    22   ar
     5    22    23   ar
     6    23    24   ar
     7    24    25   ar
     8    25    26   ar
     9    26    27    2
    10    26    28   ar
    11    28    19    1
    12    19    18    1
    13    18     1    1
    14     1     2    1
    15     2     3    1
    16     3     4    1
    17     4     7    1
    18     7     8    2
    19     8     9    1
    20     9    10    2
    21    10    11    1
    22    11    16    1
    23    16    17    3
    24    11    12    2
    25    12    13    1
    26    13    14    1
    27    14    15    2
    28     4     5    1
    29     5     6    1
    30    28    29   ar
    31    29    30   ar
    32    30    20   ar
    33    29    23   ar
    34     6     1    1
    35    15     7    1
    36    14     9    1
@<TRIPOS>MOLECULE
*****
 32 36 0 0 0
SMALL
GASTEIGER

@<TRIPOS>ATOM
      1 N         141.6342  141.7358  160.1356 N.3     1  UNL1       -0.2710
      2 C         142.9431  141.3939  159.4876 C.3     1  UNL1        0.0728
      3 C         143.0890  140.1119  158.7227 C.3     1  UNL1        0.0298
      4 C         141.9262  139.1718  158.6059 C.3     1  UNL1        0.1147
      5 C         140.6173  139.5136  159.2539 C.3     1  UNL1        0.0298
      6 C         140.4713  140.7956  160.0188 C.3     1  UNL1        0.0728
      7 C         142.0721  137.8897  157.8409 C.2     1  UNL1        0.3507
      8 N         143.1192  136.8404  158.0705 N.2     1  UNL1       -0.0350
      9 C         142.8909  135.7340  157.0837 C.2     1  UNL1        0.2324
     10 C         143.6113  134.4410  156.8410 C.2     1  UNL1        0.0601
     11 C         143.1437  133.5134  155.7589 C.2     1  UNL1        0.0685
     12 C         141.9555  133.8789  154.9194 C.2     1  UNL1       -0.0069
     13 C         141.2350  135.1720  155.1621 C.3     1  UNL1        0.1044
     14 C         141.7026  136.0996  156.2442 C.2     1  UNL1        0.2175
     15 N         141.1967  137.4318  156.7123 N.2     1  UNL1       -0.0389
     16 C         143.8641  132.2204  155.5162 C.1     1  UNL1        0.1002
     17 N         144.5847  130.9273  155.2734 N.1     1  UNL1       -0.1908
     18 C         141.4882  143.0179  160.9005 C.3     1  UNL1        0.0970
     19 C         141.7948  143.0545  162.3684 C.3     1  UNL1        0.1264
     20 C         141.0356  139.0235  164.2191 C.ar    1  UNL1        0.1593
     21 C         142.1794  138.2223  164.7667 C.ar    1  UNL1        0.1357
     22 N         143.5762  138.7647  164.6973 N.ar    1  UNL1       -0.2392
     23 C         143.8292  140.1083  164.0804 C.ar    1  UNL1        0.0975
     24 C         145.2260  140.6507  164.0111 C.ar    1  UNL1        0.0255
     25 C         145.4791  141.9943  163.3942 C.ar    1  UNL1        0.0623
     26 C         144.3353  142.7956  162.8466 C.ar    1  UNL1        0.2611
     27 O         144.5884  144.1392  162.2297 O.2     1  UNL1       -0.2670
     28 N         142.9385  142.2532  162.9160 N.ar    1  UNL1       -0.2926
     29 C         142.6855  140.9095  163.5329 C.ar    1  UNL1        0.0832
     30 C         141.2887  140.3672  163.6023 C.ar    1  UNL1        0.0573
     31 C         138.9150  138.1099  163.0283 C.3     1  UNL1        0.2525
     32 O         139.6389  138.4812  164.2885 O.3     1  UNL1       -0.4698
@<TRIPOS>BOND
     1    31    32    1
     2    32    20    1
     3    20    21   ar
     4    21    22   ar
     5    22    23   ar
     6    23    24   ar
     7    24    25   ar
     8    25    26   ar
     9    26    27    2
    10    26    28   ar
    11    28    19    1
    12    19    18    1
    13    18     1    1
    14     1     2    1
    15     2     3    1
    16     3     4    1
    17     4     7    1
    18     7     8    2
    19     8     9    1
    20     9    10    2
    21    10    11    1
    22    11    16    1
    23    16    17    3
    24    11    12    2
    25    12    13    1
    26    13    14    1
    27    14    15    2
    28     4     5    1
    29     5     6    1
    30    28    29   ar
    31    29    30   ar
    32    30    20   ar
    33    29    23   ar
    34     6     1    1
    35    15     7    1
    36    14     9    1
@<TRIPOS>MOLECULE
*****
 32 36 0 0 0
SMALL
GASTEIGER

@<TRIPOS>ATOM
      1 N         140.6898  141.7499  159.1919 N.3     1  UNL1       -0.2710
      2 C         142.1223  141.3194  159.0793 C.3     1  UNL1        0.0728
      3 C         142.4603  139.9891  158.4742 C.3     1  UNL1        0.0298
      4 C         141.3658  139.0894  157.9817 C.3     1  UNL1        0.1147
      5 C         139.9333  139.5199  158.0943 C.3     1  UNL1        0.0298
      6 C         139.5954  140.8502  158.6994 C.3     1  UNL1        0.0728
      7 C         141.7038  137.7591  157.3766 C.2     1  UNL1        0.3507
      8 N         142.8626  136.8860  157.7575 N.2     1  UNL1       -0.0350
      9 C         142.8173  135.6557  156.9007 C.2     1  UNL1        0.2324
     10 C         143.7033  134.4473  156.8319 C.2     1  UNL1        0.0601
     11 C         143.4026  133.3516  155.8527 C.2     1  UNL1        0.0685
     12 C         142.2159  133.4641  154.9423 C.2     1  UNL1       -0.0069
     13 C         141.3297  134.6725  155.0111 C.3     1  UNL1        0.1044
     14 C         141.6305  135.7683  155.9903 C.2     1  UNL1        0.2175
     15 N         140.9423  137.0682  156.2844 N.2     1  UNL1       -0.0389
     16 C         144.2887  132.1432  155.7839 C.1     1  UNL1        0.1002
     17 N         145.1748  130.9348  155.7151 N.1     1  UNL1       -0.1908
     18 C         140.3519  143.0802  159.7970 C.3     1  UNL1        0.0970
     19 C         139.0227  143.2862  160.4609 C.3     1  UNL1        0.1264
     20 C         138.4043  139.6911  163.0958 C.ar    1  UNL1        0.1593
     21 C         138.3272  139.8568  164.5846 C.ar    1  UNL1        0.1357
     22 N         138.4562  141.2209  165.1951 N.ar    1  UNL1       -0.2392
     23 C         138.6623  142.4192  164.3168 C.ar    1  UNL1        0.0975
     24 C         138.7913  143.7833  164.9273 C.ar    1  UNL1        0.0255
     25 C         138.9974  144.9816  164.0491 C.ar    1  UNL1        0.0623
     26 C         139.0745  144.8160  162.5602 C.ar    1  UNL1        0.2611
     27 O         139.2807  146.0143  161.6819 O.2     1  UNL1       -0.2670
     28 N         138.9455  143.4519  161.9497 N.ar    1  UNL1       -0.2926
     29 C         138.7394  142.2535  162.8280 C.ar    1  UNL1        0.0832
     30 C         138.6104  140.8895  162.2175 C.ar    1  UNL1        0.0573
     31 C         139.1111  137.9553  161.2965 C.3     1  UNL1        0.2525
     32 O         138.2753  138.3271  162.4853 O.3     1  UNL1       -0.4698
@<TRIPOS>BOND
     1    31    32    1
     2    32    20    1
     3    20    21   ar
     4    21    22   ar
     5    22    23   ar
     6    23    24   ar
     7    24    25   ar
     8    25    26   ar
     9    26    27    2
    10    26    28   ar
    11    28    19    1
    12    19    18    1
    13    18     1    1
    14     1     2    1
    15     2     3    1
    16     3     4    1
    17     4     7    1
    18     7     8    2
    19     8     9    1
    20     9    10    2
    21    10    11    1
    22    11    16    1
    23    16    17    3
    24    11    12    2
    25    12    13    1
    26    13    14    1
    27    14    15    2
    28     4     5    1
    29     5     6    1
    30    28    29   ar
    31    29    30   ar
    32    30    20   ar
    33    29    23   ar
    34     6     1    1
    35    15     7    1
    36    14     9    1
@<TRIPOS>MOLECULE
*****
 32 36 0 0 0
SMALL
GASTEIGER

@<TRIPOS>ATOM
      1 N         142.9684  140.8611  164.3349 N.3     1  UNL1       -0.2710
      2 C         143.1340  139.3801  164.1645 C.3     1  UNL1        0.0728
      3 C         142.8143  138.7362  162.8480 C.3     1  UNL1        0.0298
      4 C         142.3290  139.5734  161.7019 C.3     1  UNL1        0.1147
      5 C         142.1634  141.0545  161.8723 C.3     1  UNL1        0.0298
      6 C         142.4831  141.6983  163.1888 C.3     1  UNL1        0.0728
      7 C         142.0093  138.9296  160.3853 C.2     1  UNL1        0.3507
      8 N         142.9413  138.0858  159.5671 N.2     1  UNL1       -0.0350
      9 C         142.2096  137.6512  158.3319 C.2     1  UNL1        0.2324
     10 C         142.6249  136.8061  157.1644 C.2     1  UNL1        0.0601
     11 C         141.6559  136.5361  156.0516 C.2     1  UNL1        0.0685
     12 C         140.2716  137.1111  156.1065 C.2     1  UNL1       -0.0069
     13 C         139.8563  137.9563  157.2741 C.3     1  UNL1        0.1044
     14 C         140.8253  138.2263  158.3868 C.2     1  UNL1        0.2175
     15 N         140.7015  139.0164  159.6559 N.2     1  UNL1       -0.0389
     16 C         142.0712  135.6909  154.8841 C.1     1  UNL1        0.1002
     17 N         142.4865  134.8458  153.7164 N.1     1  UNL1       -0.1908
     18 C         143.2881  141.5050  165.6515 C.3     1  UNL1        0.0970
     19 C         142.2331  142.2813  166.3825 C.3     1  UNL1        0.1264
     20 C         138.7604  139.5713  165.4624 C.ar    1  UNL1        0.1593
     21 C         137.9948  138.9275  166.5801 C.ar    1  UNL1        0.1357
     22 N         138.3868  139.1870  168.0045 N.ar    1  UNL1       -0.2392
     23 C         139.5443  140.0903  168.3113 C.ar    1  UNL1        0.0975
     24 C         139.9363  140.3498  169.7357 C.ar    1  UNL1        0.0255
     25 C         141.0938  141.2531  170.0424 C.ar    1  UNL1        0.0623
     26 C         141.8595  141.8969  168.9247 C.ar    1  UNL1        0.2611
     27 O         143.0170  142.8002  169.2314 O.2     1  UNL1       -0.2670
     28 N         141.4675  141.6374  167.5002 N.ar    1  UNL1       -0.2926
     29 C         140.3099  140.7341  167.1935 C.ar    1  UNL1        0.0832
     30 C         139.9179  140.4746  165.7691 C.ar    1  UNL1        0.0573
     31 C         138.8708  138.0868  163.3331 C.3     1  UNL1        0.2525
     32 O         138.3684  139.3119  164.0379 O.3     1  UNL1       -0.4698
@<TRIPOS>BOND
     1    31    32    1
     2    32    20    1
     3    20    21   ar
     4    21    22   ar
     5    22    23   ar
     6    23    24   ar
     7    24    25   ar
     8    25    26   ar
     9    26    27    2
    10    26    28   ar
    11    28    19    1
    12    19    18    1
    13    18     1    1
    14     1     2    1
    15     2     3    1
    16     3     4    1
    17     4     7    1
    18     7     8    2
    19     8     9    1
    20     9    10    2
    21    10    11    1
    22    11    16    1
    23    16    17    3
    24    11    12    2
    25    12    13    1
    26    13    14    1
    27    14    15    2
    28     4     5    1
    29     5     6    1
    30    28    29   ar
    31    29    30   ar
    32    30    20   ar
    33    29    23   ar
    34     6     1    1
    35    15     7    1
    36    14     9    1
@<TRIPOS>MOLECULE
*****
 32 36 0 0 0
SMALL
GASTEIGER

@<TRIPOS>ATOM
      1 N         142.5171  143.3889  164.1802 N.3     1  UNL1       -0.2710
      2 C         141.7610  144.6571  163.9159 C.3     1  UNL1        0.0728
      3 C         141.4848  145.0855  162.5053 C.3     1  UNL1        0.0298
      4 C         141.9646  144.2457  161.3588 C.3     1  UNL1        0.1147
      5 C         142.7206  142.9774  161.6231 C.3     1  UNL1        0.0298
      6 C         142.9969  142.5490  163.0338 C.3     1  UNL1        0.0728
      7 C         141.6883  144.6741  159.9480 C.2     1  UNL1        0.3507
      8 N         142.5276  144.3499  158.7478 N.2     1  UNL1       -0.0350
      9 C         141.8824  144.9773  157.5478 C.2     1  UNL1        0.2324
     10 C         142.2622  144.9924  156.0968 C.2     1  UNL1        0.0601
     11 C         141.4039  145.7193  155.1043 C.2     1  UNL1        0.0685
     12 C         140.1658  146.4311  155.5629 C.2     1  UNL1       -0.0069
     13 C         139.7859  146.4161  157.0140 C.3     1  UNL1        0.1044
     14 C         140.6442  145.6892  158.0064 C.2     1  UNL1        0.2175
     15 N         140.5243  145.5017  159.4898 N.2     1  UNL1       -0.0389
     16 C         141.7837  145.7343  153.6533 C.1     1  UNL1        0.1002
     17 N         142.1635  145.7494  152.2022 N.1     1  UNL1       -0.1908
     18 C         142.7933  142.9605  165.5910 C.3     1  UNL1        0.0970
     19 C         142.5939  141.5291  165.9928 C.3     1  UNL1        0.1264
     20 C         138.8651  139.0699  165.4466 C.ar    1  UNL1        0.1593
     21 C         138.0069  138.7359  166.6306 C.ar    1  UNL1        0.1357
     22 N         138.3915  139.2216  167.9966 N.ar    1  UNL1       -0.2392
     23 C         139.6344  140.0414  168.1787 C.ar    1  UNL1        0.0975
     24 C         140.0191  140.5271  169.5448 C.ar    1  UNL1        0.0255
     25 C         141.2620  141.3468  169.7269 C.ar    1  UNL1        0.0623
     26 C         142.1203  141.6809  168.5429 C.ar    1  UNL1        0.2611
     27 O         143.3632  142.5006  168.7249 O.2     1  UNL1       -0.2670
     28 N         141.7357  141.1951  167.1768 N.ar    1  UNL1       -0.2926
     29 C         140.4927  140.3754  166.9948 C.ar    1  UNL1        0.0832
     30 C         140.1080  139.8896  165.6287 C.ar    1  UNL1        0.0573
     31 C         139.3891  137.6550  163.3316 C.3     1  UNL1        0.2525
     32 O         138.4805  138.5842  164.0806 O.3     1  UNL1       -0.4698
@<TRIPOS>BOND
     1    31    32    1
     2    32    20    1
     3    20    21   ar
     4    21    22   ar
     5    22    23   ar
     6    23    24   ar
     7    24    25   ar
     8    25    26   ar
     9    26    27    2
    10    26    28   ar
    11    28    19    1
    12    19    18    1
    13    18     1    1
    14     1     2    1
    15     2     3    1
    16     3     4    1
    17     4     7    1
    18     7     8    2
    19     8     9    1
    20     9    10    2
    21    10    11    1
    22    11    16    1
    23    16    17    3
    24    11    12    2
    25    12    13    1
    26    13    14    1
    27    14    15    2
    28     4     5    1
    29     5     6    1
    30    28    29   ar
    31    29    30   ar
    32    30    20   ar
    33    29    23   ar
    34     6     1    1
    35    15     7    1
    36    14     9    1
@<TRIPOS>MOLECULE
*****
 32 36 0 0 0
SMALL
GASTEIGER

@<TRIPOS>ATOM
      1 N         141.4425  141.2795  159.2296 N.3     1  UNL1       -0.2710
      2 C         142.7445  140.9799  158.5478 C.3     1  UNL1        0.0728
      3 C         142.9636  139.6433  157.9034 C.3     1  UNL1        0.0298
      4 C         141.8806  138.6062  157.9408 C.3     1  UNL1        0.1147
      5 C         140.5785  138.9057  158.6227 C.3     1  UNL1        0.0298
      6 C         140.3595  140.2424  159.2670 C.3     1  UNL1        0.0728
      7 C         142.0997  137.2694  157.2964 C.2     1  UNL1        0.3507
      8 N         143.1964  136.3007  157.6264 N.2     1  UNL1       -0.0350
      9 C         143.0350  135.0993  156.7429 C.2     1  UNL1        0.2324
     10 C         143.8229  133.8286  156.6228 C.2     1  UNL1        0.0601
     11 C         143.4144  132.7841  155.6268 C.2     1  UNL1        0.0685
     12 C         142.2180  133.0102  154.7508 C.2     1  UNL1       -0.0069
     13 C         141.4300  134.2810  154.8708 C.3     1  UNL1        0.1044
     14 C         141.8385  135.3255  155.8669 C.2     1  UNL1        0.2175
     15 N         141.2605  136.6667  156.2090 N.2     1  UNL1       -0.0389
     16 C         144.2023  131.5134  155.5067 C.1     1  UNL1        0.1002
     17 N         144.9903  130.2426  155.3866 N.1     1  UNL1       -0.1908
     18 C         141.2234  142.6162  159.8740 C.3     1  UNL1        0.0970
     19 C         140.8968  142.6997  161.3357 C.3     1  UNL1        0.1264
     20 C         144.1568  140.0400  162.9320 C.ar    1  UNL1        0.1593
     21 C         145.1669  140.5879  163.8961 C.ar    1  UNL1        0.1357
     22 N         145.0904  142.0223  164.3281 N.ar    1  UNL1       -0.2392
     23 C         144.0037  142.9088  163.7960 C.ar    1  UNL1        0.0975
     24 C         143.9272  144.3432  164.2280 C.ar    1  UNL1        0.0255
     25 C         142.8405  145.2298  163.6959 C.ar    1  UNL1        0.0623
     26 C         141.8304  144.6820  162.7318 C.ar    1  UNL1        0.2611
     27 O         140.7437  145.5685  162.1997 O.2     1  UNL1       -0.2670
     28 N         141.9069  143.2475  162.2998 N.ar    1  UNL1       -0.2926
     29 C         142.9936  142.3610  162.8319 C.ar    1  UNL1        0.0832
     30 C         143.0702  140.9266  162.3999 C.ar    1  UNL1        0.0573
     31 C         143.4948  138.1504  161.2764 C.3     1  UNL1        0.2525
     32 O         144.2334  138.6056  162.5000 O.3     1  UNL1       -0.4698
@<TRIPOS>BOND
     1    31    32    1
     2    32    20    1
     3    20    21   ar
     4    21    22   ar
     5    22    23   ar
     6    23    24   ar
     7    24    25   ar
     8    25    26   ar
     9    26    27    2
    10    26    28   ar
    11    28    19    1
    12    19    18    1
    13    18     1    1
    14     1     2    1
    15     2     3    1
    16     3     4    1
    17     4     7    1
    18     7     8    2
    19     8     9    1
    20     9    10    2
    21    10    11    1
    22    11    16    1
    23    16    17    3
    24    11    12    2
    25    12    13    1
    26    13    14    1
    27    14    15    2
    28     4     5    1
    29     5     6    1
    30    28    29   ar
    31    29    30   ar
    32    30    20   ar
    33    29    23   ar
    34     6     1    1
    35    15     7    1
    36    14     9    1
@<TRIPOS>MOLECULE
*****
 32 36 0 0 0
SMALL
GASTEIGER

@<TRIPOS>ATOM
      1 N         144.6198  141.5584  163.1422 N.3     1  UNL1       -0.2710
      2 C         144.3611  142.2362  161.8294 C.3     1  UNL1        0.0728
      3 C         143.7022  141.4818  160.7128 C.3     1  UNL1        0.0298
      4 C         143.3021  140.0496  160.9092 C.3     1  UNL1        0.1147
      5 C         143.5608  139.3718  162.2220 C.3     1  UNL1        0.0298
      6 C         144.2197  140.1262  163.3386 C.3     1  UNL1        0.0728
      7 C         142.6432  139.2951  159.7926 C.2     1  UNL1        0.3507
      8 N         143.2773  138.2204  158.9601 N.2     1  UNL1       -0.0350
      9 C         142.2606  137.7439  157.9655 C.2     1  UNL1        0.2324
     10 C         142.3212  136.7004  156.8897 C.2     1  UNL1        0.0601
     11 C         141.1194  136.4371  156.0316 C.2     1  UNL1        0.0685
     12 C         139.8569  137.2173  156.2494 C.2     1  UNL1       -0.0069
     13 C         139.7963  138.2609  157.3252 C.3     1  UNL1        0.1044
     14 C         140.9981  138.5242  158.1833 C.2     1  UNL1        0.2175
     15 N         141.2346  139.4828  159.3125 N.2     1  UNL1       -0.0389
     16 C         141.1800  135.3936  154.9558 C.1     1  UNL1        0.1002
     17 N         141.2406  134.3501  153.8800 N.1     1  UNL1       -0.1908
     18 C         145.2787  142.3129  164.2588 C.3     1  UNL1        0.0970
     19 C         144.4688  143.2351  165.1212 C.3     1  UNL1        0.1264
     20 C         142.1774  140.2422  167.5792 C.ar    1  UNL1        0.1593
     21 C         140.6793  140.2077  167.5136 C.ar    1  UNL1        0.1357
     22 N         139.9449  141.1709  166.6287 N.ar    1  UNL1       -0.2392
     23 C         140.7087  142.1685  165.8094 C.ar    1  UNL1        0.0975
     24 C         139.9743  143.1316  164.9244 C.ar    1  UNL1        0.0255
     25 C         140.7381  144.1292  164.1051 C.ar    1  UNL1        0.0623
     26 C         142.2363  144.1637  164.1706 C.ar    1  UNL1        0.2611
     27 O         143.0001  145.1613  163.3513 O.2     1  UNL1       -0.2670
     28 N         142.9707  143.2006  165.0556 N.ar    1  UNL1       -0.2926
     29 C         142.2068  142.2030  165.8749 C.ar    1  UNL1        0.0832
     30 C         142.9412  141.2398  166.7599 C.ar    1  UNL1        0.0573
     31 C         142.4602  139.0663  169.8786 C.3     1  UNL1        0.2525
     32 O         142.9118  139.2791  168.4641 O.3     1  UNL1       -0.4698
@<TRIPOS>BOND
     1    31    32    1
     2    32    20    1
     3    20    21   ar
     4    21    22   ar
     5    22    23   ar
     6    23    24   ar
     7    24    25   ar
     8    25    26   ar
     9    26    27    2
    10    26    28   ar
    11    28    19    1
    12    19    18    1
    13    18     1    1
    14     1     2    1
    15     2     3    1
    16     3     4    1
    17     4     7    1
    18     7     8    2
    19     8     9    1
    20     9    10    2
    21    10    11    1
    22    11    16    1
    23    16    17    3
    24    11    12    2
    25    12    13    1
    26    13    14    1
    27    14    15    2
    28     4     5    1
    29     5     6    1
    30    28    29   ar
    31    29    30   ar
    32    30    20   ar
    33    29    23   ar
    34     6     1    1
    35    15     7    1
    36    14     9    1
