@<TRIPOS>MOLECULE
*****
 34 39 0 0 0
SMALL
GASTEIGER

@<TRIPOS>ATOM
      1 C         139.7031  142.6463  162.8146 C.ar    1  UNL1        0.0476
      2 C         138.3931  141.9523  162.5867 C.ar    1  UNL1        0.0142
      3 C         137.8749  140.9765  163.6012 C.ar    1  UNL1       -0.0033
      4 C         138.6668  140.6946  164.8435 C.ar    1  UNL1       -0.0260
      5 C         139.9769  141.3886  165.0714 C.ar    1  UNL1       -0.0236
      6 C         140.4950  142.3645  164.0570 C.ar    1  UNL1        0.0100
      7 C         140.7687  141.1068  166.3138 C.3     1  UNL1        0.0410
      8 C         140.2506  140.1310  167.3283 C.3     1  UNL1        0.0621
      9 C         138.9404  139.4369  167.1004 C.3     1  UNL1        0.0210
     10 C         138.1485  139.7187  165.8580 C.3     1  UNL1        0.0274
     11 C         140.9543  145.0023  160.3655 C.3     1  UNL1        0.1145
     12 C         139.9262  145.0522  161.4566 C.3     1  UNL1        0.1099
     13 N         140.2214  143.6222  161.8001 N.pl3   1  UNL1       -0.3045
     14 C         141.2495  143.5724  160.7090 C.3     1  UNL1        0.1099
     15 N         141.4724  145.9782  159.3511 N.3     1  UNL1       -0.1813
     16 H         141.0712  146.8865  159.5845 H       1  UNL1        0.1485
     17 O         142.6144  146.1795  157.5747 O.2     1  UNL1       -0.1575
     18 S         141.2119  145.7520  157.8913 S.O2    1  UNL1        0.0408
     19 O         139.8094  145.3245  158.2078 O.2     1  UNL1       -0.1575
     20 C         140.9513  145.5258  156.4315 C.3     1  UNL1        0.1688
     21 C         140.1649  146.5323  155.6452 C.3     1  UNL1        0.0253
     22 C         138.9095  147.3276  155.4406 C.3     1  UNL1        0.0019
     23 C         140.0580  147.4806  154.4879 C.3     1  UNL1        0.0019
     24 N         141.0425  139.8491  168.5706 N.3     1  UNL1       -0.2735
     25 C         140.7895  139.9836  170.0431 C.3     1  UNL1        0.0735
     26 C         142.1624  139.4506  170.3276 C.3     1  UNL1        0.0346
     27 C         142.4153  139.3161  168.8553 C.3     1  UNL1        0.0735
     28 C         142.0788  141.8008  166.5417 C.3     1  UNL1        0.0320
     29 C         143.2444  141.5175  165.6409 C.ar    1  UNL1       -0.0218
     30 C         144.1057  142.6441  165.1521 C.ar    1  UNL1       -0.0043
     31 C         145.2712  142.3608  164.2514 C.ar    1  UNL1       -0.0003
     32 C         145.5754  140.9509  163.8394 C.ar    1  UNL1       -0.0000
     33 C         144.7141  139.8243  164.3282 C.ar    1  UNL1       -0.0003
     34 C         143.5485  140.1076  165.2290 C.ar    1  UNL1       -0.0043
@<TRIPOS>BOND
     1    17    18    2
     2    18    19    2
     3    18    20    1
     4    20    21    1
     5    21    22    1
     6    22    23    1
     7    18    15    1
     8    15    11    1
     9    11    12    1
    10    12    13    1
    11    13     1    1
    12     1     2   ar
    13     2     3   ar
    14     3     4   ar
    15     4     5   ar
    16     5     6   ar
    17     5     7    1
    18     7    28    1
    19    28    29    1
    20    29    30   ar
    21    30    31   ar
    22    31    32   ar
    23    32    33   ar
    24    33    34   ar
    25     7     8    1
    26     8    24    1
    27    24    25    1
    28    25    26    1
    29    26    27    1
    30     8     9    1
    31     9    10    1
    32    13    14    1
    33    23    21    1
    34    14    11    1
    35     6     1   ar
    36    34    29   ar
    37    27    24    1
    38    10     4    1
    39    15    16    1
@<TRIPOS>MOLECULE
*****
 34 39 0 0 0
SMALL
GASTEIGER

@<TRIPOS>ATOM
      1 C         140.7633  138.6231  162.5334 C.ar    1  UNL1        0.0476
      2 C         139.5710  137.7616  162.8270 C.ar    1  UNL1        0.0142
      3 C         138.8924  137.8499  164.1618 C.ar    1  UNL1       -0.0033
      4 C         139.4061  138.7997  165.2030 C.ar    1  UNL1       -0.0260
      5 C         140.5984  139.6611  164.9094 C.ar    1  UNL1       -0.0236
      6 C         141.2770  139.5728  163.5746 C.ar    1  UNL1        0.0100
      7 C         141.1122  140.6109  165.9506 C.3     1  UNL1        0.0410
      8 C         140.4336  140.6992  167.2853 C.3     1  UNL1        0.0621
      9 C         139.2412  139.8377  167.5790 C.3     1  UNL1        0.0210
     10 C         138.7275  138.8880  166.5378 C.3     1  UNL1        0.0274
     11 C         142.4017  138.4099  159.3109 C.3     1  UNL1        0.1145
     12 C         142.5134  137.6663  160.6088 C.3     1  UNL1        0.1099
     13 N         141.4419  138.5348  161.1986 N.pl3   1  UNL1       -0.3045
     14 C         141.3302  139.2784  159.9006 C.3     1  UNL1        0.1099
     15 N         143.0803  138.3216  157.9762 N.3     1  UNL1       -0.1813
     16 H         143.0280  139.2501  157.5572 H       1  UNL1        0.1485
     17 O         143.9866  137.1571  156.4520 O.2     1  UNL1       -0.1575
     18 S         142.5833  137.3525  156.9447 S.O2    1  UNL1        0.0408
     19 O         141.1800  137.5479  157.4373 O.2     1  UNL1       -0.1575
     20 C         142.0863  136.3835  155.9132 C.3     1  UNL1        0.1688
     21 C         142.2998  134.9109  156.1031 C.3     1  UNL1        0.0253
     22 C         141.9811  133.4933  155.7302 C.3     1  UNL1        0.0019
     23 C         142.9882  133.7779  156.8048 C.3     1  UNL1        0.0019
     24 N         140.9474  141.6489  168.3265 N.3     1  UNL1       -0.2735
     25 C         142.0317  141.6024  169.3620 C.3     1  UNL1        0.0735
     26 C         141.6739  142.9920  169.7989 C.3     1  UNL1        0.0346
     27 C         140.5897  143.0385  168.7635 C.3     1  UNL1        0.0735
     28 C         142.3045  141.4723  165.6570 C.3     1  UNL1        0.0320
     29 C         142.1228  142.8004  164.9836 C.ar    1  UNL1       -0.0218
     30 C         140.7462  143.3697  164.8073 C.ar    1  UNL1       -0.0043
     31 C         140.5645  144.6977  164.1341 C.ar    1  UNL1       -0.0003
     32 C         141.7592  145.4564  163.6370 C.ar    1  UNL1       -0.0000
     33 C         143.1357  144.8871  163.8133 C.ar    1  UNL1       -0.0003
     34 C         143.3175  143.5590  164.4866 C.ar    1  UNL1       -0.0043
@<TRIPOS>BOND
     1    17    18    2
     2    18    19    2
     3    18    20    1
     4    20    21    1
     5    21    22    1
     6    22    23    1
     7    18    15    1
     8    15    11    1
     9    11    12    1
    10    12    13    1
    11    13     1    1
    12     1     2   ar
    13     2     3   ar
    14     3     4   ar
    15     4     5   ar
    16     5     6   ar
    17     5     7    1
    18     7    28    1
    19    28    29    1
    20    29    30   ar
    21    30    31   ar
    22    31    32   ar
    23    32    33   ar
    24    33    34   ar
    25     7     8    1
    26     8    24    1
    27    24    25    1
    28    25    26    1
    29    26    27    1
    30     8     9    1
    31     9    10    1
    32    13    14    1
    33    23    21    1
    34    14    11    1
    35     6     1   ar
    36    34    29   ar
    37    27    24    1
    38    10     4    1
    39    15    16    1
@<TRIPOS>MOLECULE
*****
 34 39 0 0 0
SMALL
GASTEIGER

@<TRIPOS>ATOM
      1 C         143.3528  141.1913  162.2932 C.ar    1  UNL1        0.0476
      2 C         144.0592  139.8724  162.1861 C.ar    1  UNL1        0.0142
      3 C         144.1678  138.9801  163.3868 C.ar    1  UNL1       -0.0033
      4 C         143.5700  139.4067  164.6948 C.ar    1  UNL1       -0.0260
      5 C         142.8636  140.7256  164.8019 C.ar    1  UNL1       -0.0236
      6 C         142.7551  141.6179  163.6012 C.ar    1  UNL1        0.0100
      7 C         142.2659  141.1521  166.1099 C.3     1  UNL1        0.0410
      8 C         142.3745  140.2598  167.3107 C.3     1  UNL1        0.0621
      9 C         143.0808  138.9408  167.2035 C.3     1  UNL1        0.0210
     10 C         143.6786  138.5143  165.8956 C.3     1  UNL1        0.0274
     11 C         143.0906  143.3458  159.3943 C.3     1  UNL1        0.1145
     12 C         143.0268  143.5524  160.8786 C.3     1  UNL1        0.1099
     13 N         143.2442  142.0837  161.0924 N.pl3   1  UNL1       -0.3045
     14 C         143.3081  141.8771  159.6081 C.3     1  UNL1        0.1099
     15 N         142.9820  144.2382  158.1936 N.3     1  UNL1       -0.1813
     16 H         143.7560  144.9003  158.2478 H       1  UNL1        0.1485
     17 O         140.9284  143.7823  157.9190 O.2     1  UNL1       -0.1575
     18 S         141.7373  145.0446  157.9685 S.O2    1  UNL1        0.0408
     19 O         142.5461  146.3069  158.0181 O.2     1  UNL1       -0.1575
     20 C         140.4927  145.8510  157.7435 C.3     1  UNL1        0.1688
     21 C         140.0597  146.1883  156.3476 C.3     1  UNL1        0.0253
     22 C         139.1906  145.9164  155.1556 C.3     1  UNL1        0.0019
     23 C         140.1788  147.0443  155.1215 C.3     1  UNL1        0.0019
     24 N         141.7767  140.6864  168.6186 N.3     1  UNL1       -0.2735
     25 C         142.2798  141.4225  169.8249 C.3     1  UNL1        0.0735
     26 C         140.9313  141.2896  170.4683 C.3     1  UNL1        0.0346
     27 C         140.4283  140.5536  169.2621 C.3     1  UNL1        0.0735
     28 C         141.5595  142.4710  166.2170 C.3     1  UNL1        0.0320
     29 C         140.2222  142.6608  165.5646 C.ar    1  UNL1       -0.0218
     30 C         139.3372  141.4768  165.3098 C.ar    1  UNL1       -0.0043
     31 C         138.0000  141.6666  164.6574 C.ar    1  UNL1       -0.0003
     32 C         137.5476  143.0404  164.2597 C.ar    1  UNL1       -0.0000
     33 C         138.4326  144.2244  164.5146 C.ar    1  UNL1       -0.0003
     34 C         139.7699  144.0346  165.1670 C.ar    1  UNL1       -0.0043
@<TRIPOS>BOND
     1    17    18    2
     2    18    19    2
     3    18    20    1
     4    20    21    1
     5    21    22    1
     6    22    23    1
     7    18    15    1
     8    15    11    1
     9    11    12    1
    10    12    13    1
    11    13     1    1
    12     1     2   ar
    13     2     3   ar
    14     3     4   ar
    15     4     5   ar
    16     5     6   ar
    17     5     7    1
    18     7    28    1
    19    28    29    1
    20    29    30   ar
    21    30    31   ar
    22    31    32   ar
    23    32    33   ar
    24    33    34   ar
    25     7     8    1
    26     8    24    1
    27    24    25    1
    28    25    26    1
    29    26    27    1
    30     8     9    1
    31     9    10    1
    32    13    14    1
    33    23    21    1
    34    14    11    1
    35     6     1   ar
    36    34    29   ar
    37    27    24    1
    38    10     4    1
    39    15    16    1
@<TRIPOS>MOLECULE
*****
 34 39 0 0 0
SMALL
GASTEIGER

@<TRIPOS>ATOM
      1 C         140.7017  138.5282  163.0748 C.ar    1  UNL1        0.0476
      2 C         139.4813  137.7246  163.4136 C.ar    1  UNL1        0.0142
      3 C         138.8109  137.9036  164.7434 C.ar    1  UNL1       -0.0033
      4 C         139.3609  138.8861  165.7345 C.ar    1  UNL1       -0.0260
      5 C         140.5813  139.6896  165.3957 C.ar    1  UNL1       -0.0236
      6 C         141.2517  139.5107  164.0658 C.ar    1  UNL1        0.0100
      7 C         141.1314  140.6721  166.3867 C.3     1  UNL1        0.0410
      8 C         140.4610  140.8511  167.7165 C.3     1  UNL1        0.0621
      9 C         139.2405  140.0475  168.0554 C.3     1  UNL1        0.0210
     10 C         138.6905  139.0650  167.0644 C.3     1  UNL1        0.0274
     11 C         142.3203  138.0963  159.8642 C.3     1  UNL1        0.1145
     12 C         142.7528  137.9733  161.2952 C.3     1  UNL1        0.1099
     13 N         141.3721  138.3493  161.7449 N.pl3   1  UNL1       -0.3045
     14 C         140.9396  138.4723  160.3139 C.3     1  UNL1        0.1099
     15 N         142.9908  137.9174  158.5344 N.3     1  UNL1       -0.1813
     16 H         143.9343  137.5793  158.7235 H       1  UNL1        0.1485
     17 O         142.0854  138.4858  156.7021 O.2     1  UNL1       -0.1575
     18 S         143.1275  139.0832  157.6005 S.O2    1  UNL1        0.0408
     19 O         144.1696  139.6807  158.4988 O.2     1  UNL1       -0.1575
     20 C         143.2642  140.2490  156.6666 C.3     1  UNL1        0.1688
     21 C         144.4662  140.3597  155.7761 C.3     1  UNL1        0.0253
     22 C         145.9262  140.6527  155.5949 C.3     1  UNL1        0.0019
     23 C         145.0883  140.2584  154.4149 C.3     1  UNL1        0.0019
     24 N         141.0110  141.8336  168.7076 N.3     1  UNL1       -0.2735
     25 C         142.1281  141.8179  169.7086 C.3     1  UNL1        0.0735
     26 C         141.7889  143.2230  170.1091 C.3     1  UNL1        0.0346
     27 C         140.6719  143.2388  169.1082 C.3     1  UNL1        0.0735
     28 C         142.3518  141.4757  166.0479 C.3     1  UNL1        0.0320
     29 C         142.2162  142.7594  165.2838 C.ar    1  UNL1       -0.0218
     30 C         143.4394  143.4578  164.7679 C.ar    1  UNL1       -0.0043
     31 C         143.3039  144.7415  164.0038 C.ar    1  UNL1       -0.0003
     32 C         141.9452  145.3268  163.7556 C.ar    1  UNL1       -0.0000
     33 C         140.7221  144.6284  164.2715 C.ar    1  UNL1       -0.0003
     34 C         140.8576  143.3447  165.0356 C.ar    1  UNL1       -0.0043
@<TRIPOS>BOND
     1    17    18    2
     2    18    19    2
     3    18    20    1
     4    20    21    1
     5    21    22    1
     6    22    23    1
     7    18    15    1
     8    15    11    1
     9    11    12    1
    10    12    13    1
    11    13     1    1
    12     1     2   ar
    13     2     3   ar
    14     3     4   ar
    15     4     5   ar
    16     5     6   ar
    17     5     7    1
    18     7    28    1
    19    28    29    1
    20    29    30   ar
    21    30    31   ar
    22    31    32   ar
    23    32    33   ar
    24    33    34   ar
    25     7     8    1
    26     8    24    1
    27    24    25    1
    28    25    26    1
    29    26    27    1
    30     8     9    1
    31     9    10    1
    32    13    14    1
    33    23    21    1
    34    14    11    1
    35     6     1   ar
    36    34    29   ar
    37    27    24    1
    38    10     4    1
    39    15    16    1
@<TRIPOS>MOLECULE
*****
 34 39 0 0 0
SMALL
GASTEIGER

@<TRIPOS>ATOM
      1 C         143.8475  140.7807  162.8997 C.ar    1  UNL1        0.0476
      2 C         144.4387  139.4321  163.1852 C.ar    1  UNL1        0.0142
      3 C         144.2436  138.7972  164.5301 C.ar    1  UNL1       -0.0033
      4 C         143.4572  139.5110  165.5894 C.ar    1  UNL1       -0.0260
      5 C         142.8661  140.8596  165.3039 C.ar    1  UNL1       -0.0236
      6 C         143.0612  141.4945  163.9590 C.ar    1  UNL1        0.0100
      7 C         142.0797  141.5734  166.3633 C.3     1  UNL1        0.0410
      8 C         141.8846  140.9385  167.7082 C.3     1  UNL1        0.0621
      9 C         142.4758  139.5898  167.9938 C.3     1  UNL1        0.0210
     10 C         143.2621  138.8760  166.9344 C.3     1  UNL1        0.0274
     11 C         144.3185  142.3136  159.6527 C.3     1  UNL1        0.1145
     12 C         143.5079  141.1650  160.1758 C.3     1  UNL1        0.1099
     13 N         144.0426  141.4157  161.5547 N.pl3   1  UNL1       -0.3045
     14 C         144.8532  142.5643  161.0315 C.3     1  UNL1        0.1099
     15 N         144.5136  142.9485  158.3078 N.3     1  UNL1       -0.1813
     16 H         143.5901  143.0250  157.8815 H       1  UNL1        0.1485
     17 O         144.2085  141.6732  156.6401 O.2     1  UNL1       -0.1575
     18 S         145.4061  142.2971  157.2932 S.O2    1  UNL1        0.0408
     19 O         146.6037  142.9210  157.9463 O.2     1  UNL1       -0.1575
     20 C         146.2986  141.6458  156.2787 C.3     1  UNL1        0.1688
     21 C         146.7736  142.4244  155.0879 C.3     1  UNL1        0.0253
     22 C         147.1579  143.7309  154.4590 C.3     1  UNL1        0.0019
     23 C         147.2122  142.4664  153.6540 C.3     1  UNL1        0.0019
     24 N         141.0983  141.6523  168.7675 N.3     1  UNL1       -0.2735
     25 C         139.7252  141.5010  169.3522 C.3     1  UNL1        0.0735
     26 C         139.9863  142.6617  170.2657 C.3     1  UNL1        0.0346
     27 C         141.3593  142.8130  169.6811 C.3     1  UNL1        0.0735
     28 C         141.4886  142.9221  166.0777 C.3     1  UNL1        0.0320
     29 C         140.1474  143.0279  165.4142 C.ar    1  UNL1       -0.0218
     30 C         139.6389  144.3638  164.9596 C.ar    1  UNL1       -0.0043
     31 C         138.2978  144.4697  164.2961 C.ar    1  UNL1       -0.0003
     32 C         137.4651  143.2395  164.0873 C.ar    1  UNL1       -0.0000
     33 C         137.9736  141.9036  164.5419 C.ar    1  UNL1       -0.0003
     34 C         139.3148  141.7978  165.2054 C.ar    1  UNL1       -0.0043
@<TRIPOS>BOND
     1    17    18    2
     2    18    19    2
     3    18    20    1
     4    20    21    1
     5    21    22    1
     6    22    23    1
     7    18    15    1
     8    15    11    1
     9    11    12    1
    10    12    13    1
    11    13     1    1
    12     1     2   ar
    13     2     3   ar
    14     3     4   ar
    15     4     5   ar
    16     5     6   ar
    17     5     7    1
    18     7    28    1
    19    28    29    1
    20    29    30   ar
    21    30    31   ar
    22    31    32   ar
    23    32    33   ar
    24    33    34   ar
    25     7     8    1
    26     8    24    1
    27    24    25    1
    28    25    26    1
    29    26    27    1
    30     8     9    1
    31     9    10    1
    32    13    14    1
    33    23    21    1
    34    14    11    1
    35     6     1   ar
    36    34    29   ar
    37    27    24    1
    38    10     4    1
    39    15    16    1
@<TRIPOS>MOLECULE
*****
 34 39 0 0 0
SMALL
GASTEIGER

@<TRIPOS>ATOM
      1 C         142.3376  139.3996  163.9190 C.ar    1  UNL1        0.0476
      2 C         142.4424  138.1596  163.0817 C.ar    1  UNL1        0.0142
      3 C         142.3225  138.2501  161.5893 C.ar    1  UNL1       -0.0033
      4 C         142.0979  139.5806  160.9342 C.ar    1  UNL1       -0.0260
      5 C         141.9932  140.8207  161.7715 C.ar    1  UNL1       -0.0236
      6 C         142.1130  140.7302  163.2639 C.ar    1  UNL1        0.0100
      7 C         141.7686  142.1513  161.1164 C.3     1  UNL1        0.0410
      8 C         141.6487  142.2418  159.6240 C.3     1  UNL1        0.0621
      9 C         141.7535  141.0017  158.7866 C.3     1  UNL1        0.0210
     10 C         141.9781  139.6711  159.4416 C.3     1  UNL1        0.0274
     11 C         142.6268  139.1813  167.5222 C.3     1  UNL1        0.1145
     12 C         141.6475  139.8052  166.5726 C.3     1  UNL1        0.1099
     13 N         142.4574  139.3092  165.4116 N.pl3   1  UNL1       -0.3045
     14 C         143.4367  138.6853  166.3612 C.3     1  UNL1        0.1099
     15 N         142.7465  139.0909  169.0147 N.3     1  UNL1       -0.1813
     16 H         142.2871  138.2244  169.2950 H       1  UNL1        0.1485
     17 O         143.4849  140.9198  169.7957 O.2     1  UNL1       -0.1575
     18 S         142.1831  140.1792  169.8797 S.O2    1  UNL1        0.0408
     19 O         140.8814  139.4387  169.9636 O.2     1  UNL1       -0.1575
     20 C         141.6198  141.2676  170.7446 C.3     1  UNL1        0.1688
     21 C         140.9772  142.4683  170.1159 C.3     1  UNL1        0.0253
     22 C         140.3819  143.8393  170.2432 C.3     1  UNL1        0.0019
     23 C         140.4594  143.1772  168.8995 C.3     1  UNL1        0.0019
     24 N         141.4241  143.5723  158.9689 N.3     1  UNL1       -0.2735
     25 C         140.2750  144.5329  158.8851 C.3     1  UNL1        0.0735
     26 C         141.1065  145.4540  158.0425 C.3     1  UNL1        0.0346
     27 C         142.2555  144.4936  158.1262 C.3     1  UNL1        0.0735
     28 C         141.6638  143.3913  161.9538 C.3     1  UNL1        0.0320
     29 C         140.4145  143.6632  162.7384 C.ar    1  UNL1       -0.0218
     30 C         140.4952  144.3859  164.0503 C.ar    1  UNL1       -0.0043
     31 C         139.2461  144.6578  164.8349 C.ar    1  UNL1       -0.0003
     32 C         137.9161  144.2070  164.3075 C.ar    1  UNL1       -0.0000
     33 C         137.8354  143.4844  162.9955 C.ar    1  UNL1       -0.0003
     34 C         139.0846  143.2125  162.2110 C.ar    1  UNL1       -0.0043
@<TRIPOS>BOND
     1    17    18    2
     2    18    19    2
     3    18    20    1
     4    20    21    1
     5    21    22    1
     6    22    23    1
     7    18    15    1
     8    15    11    1
     9    11    12    1
    10    12    13    1
    11    13     1    1
    12     1     2   ar
    13     2     3   ar
    14     3     4   ar
    15     4     5   ar
    16     5     6   ar
    17     5     7    1
    18     7    28    1
    19    28    29    1
    20    29    30   ar
    21    30    31   ar
    22    31    32   ar
    23    32    33   ar
    24    33    34   ar
    25     7     8    1
    26     8    24    1
    27    24    25    1
    28    25    26    1
    29    26    27    1
    30     8     9    1
    31     9    10    1
    32    13    14    1
    33    23    21    1
    34    14    11    1
    35     6     1   ar
    36    34    29   ar
    37    27    24    1
    38    10     4    1
    39    15    16    1
@<TRIPOS>MOLECULE
*****
 34 39 0 0 0
SMALL
GASTEIGER

@<TRIPOS>ATOM
      1 C         141.1933  139.1725  162.1464 C.ar    1  UNL1        0.0476
      2 C         142.5556  138.5596  162.2831 C.ar    1  UNL1        0.0142
      3 C         143.2267  138.5147  163.6238 C.ar    1  UNL1       -0.0033
      4 C         142.5355  139.0826  164.8279 C.ar    1  UNL1       -0.0260
      5 C         141.1733  139.6955  164.6912 C.ar    1  UNL1       -0.0236
      6 C         140.5022  139.7404  163.3505 C.ar    1  UNL1        0.0100
      7 C         140.4822  140.2634  165.8953 C.3     1  UNL1        0.0410
      8 C         141.1533  140.2185  167.2360 C.3     1  UNL1        0.0621
      9 C         142.5156  139.6056  167.3727 C.3     1  UNL1        0.0210
     10 C         143.2067  139.0377  166.1686 C.3     1  UNL1        0.0274
     11 C         139.5729  139.2809  158.9096 C.3     1  UNL1        0.1145
     12 C         139.1916  138.7781  160.2704 C.3     1  UNL1        0.1099
     13 N         140.5222  139.2174  160.8057 N.pl3   1  UNL1       -0.3045
     14 C         140.9035  139.7203  159.4449 C.3     1  UNL1        0.1099
     15 N         138.9018  139.3258  157.5690 N.3     1  UNL1       -0.1813
     16 H         139.6245  139.1473  156.8717 H       1  UNL1        0.1485
     17 O         139.2885  140.8788  156.1765 O.2     1  UNL1       -0.1575
     18 S         138.1772  140.5652  157.1340 S.O2    1  UNL1        0.0408
     19 O         137.0660  140.2517  158.0915 O.2     1  UNL1       -0.1575
     20 C         137.4528  141.8046  156.6991 C.3     1  UNL1        0.1688
     21 C         136.2810  141.7008  155.7685 C.3     1  UNL1        0.0253
     22 C         134.9323  141.1345  155.4359 C.3     1  UNL1        0.0019
     23 C         135.5999  142.0872  154.4891 C.3     1  UNL1        0.0019
     24 N         140.4622  140.7865  168.4401 N.3     1  UNL1       -0.2735
     25 C         139.4969  140.2552  169.4580 C.3     1  UNL1        0.0735
     26 C         139.4848  141.5897  170.1429 C.3     1  UNL1        0.0346
     27 C         140.4500  142.1209  169.1251 C.3     1  UNL1        0.0735
     28 C         139.1200  140.8763  165.7587 C.3     1  UNL1        0.0320
     29 C         138.9532  142.1802  165.0360 C.ar    1  UNL1       -0.0218
     30 C         137.8644  142.3387  164.0165 C.ar    1  UNL1       -0.0043
     31 C         137.6976  143.6424  163.2938 C.ar    1  UNL1       -0.0003
     32 C         138.6196  144.7878  163.5906 C.ar    1  UNL1       -0.0000
     33 C         139.7085  144.6293  164.6101 C.ar    1  UNL1       -0.0003
     34 C         139.8752  143.3255  165.3328 C.ar    1  UNL1       -0.0043
@<TRIPOS>BOND
     1    17    18    2
     2    18    19    2
     3    18    20    1
     4    20    21    1
     5    21    22    1
     6    22    23    1
     7    18    15    1
     8    15    11    1
     9    11    12    1
    10    12    13    1
    11    13     1    1
    12     1     2   ar
    13     2     3   ar
    14     3     4   ar
    15     4     5   ar
    16     5     6   ar
    17     5     7    1
    18     7    28    1
    19    28    29    1
    20    29    30   ar
    21    30    31   ar
    22    31    32   ar
    23    32    33   ar
    24    33    34   ar
    25     7     8    1
    26     8    24    1
    27    24    25    1
    28    25    26    1
    29    26    27    1
    30     8     9    1
    31     9    10    1
    32    13    14    1
    33    23    21    1
    34    14    11    1
    35     6     1   ar
    36    34    29   ar
    37    27    24    1
    38    10     4    1
    39    15    16    1
@<TRIPOS>MOLECULE
*****
 34 39 0 0 0
SMALL
GASTEIGER

@<TRIPOS>ATOM
      1 C         141.9873  143.6040  162.0960 C.ar    1  UNL1        0.0476
      2 C         143.4116  144.0385  162.2757 C.ar    1  UNL1        0.0142
      3 C         144.0934  143.8459  163.5978 C.ar    1  UNL1       -0.0033
      4 C         143.3507  143.2189  164.7403 C.ar    1  UNL1       -0.0260
      5 C         141.9264  142.7844  164.5607 C.ar    1  UNL1       -0.0236
      6 C         141.2446  142.9770  163.2385 C.ar    1  UNL1        0.0100
      7 C         141.1837  142.1574  165.7032 C.3     1  UNL1        0.0410
      8 C         141.8655  141.9648  167.0253 C.3     1  UNL1        0.0621
      9 C         143.2899  142.3993  167.2050 C.3     1  UNL1        0.0210
     10 C         144.0326  143.0263  166.0625 C.3     1  UNL1        0.0274
     11 C         140.3413  144.0688  158.9040 C.3     1  UNL1        0.1145
     12 C         141.5550  143.3223  159.3728 C.3     1  UNL1        0.1099
     13 N         141.3054  143.7965  160.7738 N.pl3   1  UNL1       -0.3045
     14 C         140.0917  144.5430  160.3050 C.3     1  UNL1        0.1099
     15 N         139.6595  144.2613  157.5818 N.3     1  UNL1       -0.1813
     16 H         139.5486  143.3347  157.1701 H       1  UNL1        0.1485
     17 O         140.4521  146.2286  157.5397 O.2     1  UNL1       -0.1575
     18 S         140.2892  145.1289  156.5326 S.O2    1  UNL1        0.0408
     19 O         140.1263  144.0293  155.5255 O.2     1  UNL1       -0.1575
     20 C         140.9188  145.9965  155.4834 C.3     1  UNL1        0.1688
     21 C         140.1888  147.2021  154.9700 C.3     1  UNL1        0.0253
     22 C         139.0222  148.1424  155.0413 C.3     1  UNL1        0.0019
     23 C         140.0908  148.3500  154.0094 C.3     1  UNL1        0.0019
     24 N         141.1228  141.3378  168.1678 N.3     1  UNL1       -0.2735
     25 C         141.0717  139.9670  168.7748 C.3     1  UNL1        0.0735
     26 C         140.0726  140.4510  169.7835 C.3     1  UNL1        0.0346
     27 C         140.1238  141.8217  169.1766 C.3     1  UNL1        0.0735
     28 C         139.7593  141.7229  165.5235 C.3     1  UNL1        0.0320
     29 C         139.4224  140.2623  165.4651 C.ar    1  UNL1       -0.0218
     30 C         138.3476  139.7046  166.3503 C.ar    1  UNL1       -0.0043
     31 C         138.0106  138.2441  166.2919 C.ar    1  UNL1       -0.0003
     32 C         138.7485  137.3413  165.3482 C.ar    1  UNL1       -0.0000
     33 C         139.8233  137.8991  164.4629 C.ar    1  UNL1       -0.0003
     34 C         140.1602  139.3596  164.5213 C.ar    1  UNL1       -0.0043
@<TRIPOS>BOND
     1    17    18    2
     2    18    19    2
     3    18    20    1
     4    20    21    1
     5    21    22    1
     6    22    23    1
     7    18    15    1
     8    15    11    1
     9    11    12    1
    10    12    13    1
    11    13     1    1
    12     1     2   ar
    13     2     3   ar
    14     3     4   ar
    15     4     5   ar
    16     5     6   ar
    17     5     7    1
    18     7    28    1
    19    28    29    1
    20    29    30   ar
    21    30    31   ar
    22    31    32   ar
    23    32    33   ar
    24    33    34   ar
    25     7     8    1
    26     8    24    1
    27    24    25    1
    28    25    26    1
    29    26    27    1
    30     8     9    1
    31     9    10    1
    32    13    14    1
    33    23    21    1
    34    14    11    1
    35     6     1   ar
    36    34    29   ar
    37    27    24    1
    38    10     4    1
    39    15    16    1
@<TRIPOS>MOLECULE
*****
 34 39 0 0 0
SMALL
GASTEIGER

@<TRIPOS>ATOM
      1 C         142.9842  140.0109  163.6842 C.ar    1  UNL1        0.0476
      2 C         144.3074  140.0424  162.9784 C.ar    1  UNL1        0.0142
      3 C         144.3657  140.3257  161.5066 C.ar    1  UNL1       -0.0033
      4 C         143.1009  140.5776  160.7406 C.ar    1  UNL1       -0.0260
      5 C         141.7777  140.5461  161.4464 C.ar    1  UNL1       -0.0236
      6 C         141.7194  140.2628  162.9182 C.ar    1  UNL1        0.0100
      7 C         140.5129  140.7980  160.6803 C.3     1  UNL1        0.0410
      8 C         140.5713  141.0813  159.2085 C.3     1  UNL1        0.0621
      9 C         141.8945  141.1128  158.5027 C.3     1  UNL1        0.0210
     10 C         143.1593  140.8609  159.2687 C.3     1  UNL1        0.0274
     11 C         142.8432  139.3269  167.2376 C.3     1  UNL1        0.1145
     12 C         142.8648  138.4860  165.9956 C.3     1  UNL1        0.1099
     13 N         142.9258  139.7276  165.1561 N.pl3   1  UNL1       -0.3045
     14 C         142.9042  140.5684  166.3981 C.3     1  UNL1        0.1099
     15 N         142.7848  139.0435  168.7094 N.3     1  UNL1       -0.1813
     16 H         142.3317  138.1360  168.8168 H       1  UNL1        0.1485
     17 O         140.7781  139.6927  168.9375 O.2     1  UNL1       -0.1575
     18 S         142.0752  139.9932  169.6285 S.O2    1  UNL1        0.0408
     19 O         143.3722  140.2937  170.3194 O.2     1  UNL1       -0.1575
     20 C         141.3656  140.9428  170.5475 C.3     1  UNL1        0.1688
     21 C         140.8244  142.2371  170.0164 C.3     1  UNL1        0.0253
     22 C         140.1976  143.5787  170.2555 C.3     1  UNL1        0.0019
     23 C         140.5140  143.1373  168.8573 C.3     1  UNL1        0.0019
     24 N         139.3065  141.3331  158.4425 N.3     1  UNL1       -0.2735
     25 C         138.3250  140.4728  157.7032 C.3     1  UNL1        0.0735
     26 C         137.5178  141.6893  157.3592 C.3     1  UNL1        0.0346
     27 C         138.4992  142.5496  158.0984 C.3     1  UNL1        0.0735
     28 C         139.1898  140.7665  161.3861 C.3     1  UNL1        0.0320
     29 C         138.7884  141.9036  162.2784 C.ar    1  UNL1       -0.0218
     30 C         139.0933  143.3161  161.8763 C.ar    1  UNL1       -0.0043
     31 C         138.6920  144.4532  162.7685 C.ar    1  UNL1       -0.0003
     32 C         137.9857  144.1777  164.0629 C.ar    1  UNL1       -0.0000
     33 C         137.6808  142.7651  164.4650 C.ar    1  UNL1       -0.0003
     34 C         138.0822  141.6280  163.5727 C.ar    1  UNL1       -0.0043
@<TRIPOS>BOND
     1    17    18    2
     2    18    19    2
     3    18    20    1
     4    20    21    1
     5    21    22    1
     6    22    23    1
     7    18    15    1
     8    15    11    1
     9    11    12    1
    10    12    13    1
    11    13     1    1
    12     1     2   ar
    13     2     3   ar
    14     3     4   ar
    15     4     5   ar
    16     5     6   ar
    17     5     7    1
    18     7    28    1
    19    28    29    1
    20    29    30   ar
    21    30    31   ar
    22    31    32   ar
    23    32    33   ar
    24    33    34   ar
    25     7     8    1
    26     8    24    1
    27    24    25    1
    28    25    26    1
    29    26    27    1
    30     8     9    1
    31     9    10    1
    32    13    14    1
    33    23    21    1
    34    14    11    1
    35     6     1   ar
    36    34    29   ar
    37    27    24    1
    38    10     4    1
    39    15    16    1
