@<TRIPOS>MOLECULE
*****
 28 31 0 0 0
SMALL
GASTEIGER

@<TRIPOS>ATOM
      1 C         139.0410  141.9667  160.0701 C.ar    1  UNL1        0.0877
      2 C         138.8851  142.6734  158.7563 C.ar    1  UNL1        0.0508
      3 C         139.7262  143.8764  158.4474 C.ar    1  UNL1        0.1348
      4 N         140.7231  144.3726  159.4523 N.ar    1  UNL1       -0.2103
      5 C         140.8790  143.6660  160.7661 C.ar    1  UNL1        0.1811
      6 N         140.0379  142.4630  161.0751 N.ar    1  UNL1       -0.2278
      7 N         139.5703  144.5832  157.1335 N.pl3   1  UNL1       -0.2880
      8 C         138.8727  143.9020  155.9935 C.3     1  UNL1        0.1242
      9 C         138.7169  144.6086  154.6797 C.3     1  UNL1        0.1636
     10 O         139.2586  145.9966  154.5057 O.3     1  UNL1       -0.3501
     11 C         139.9561  146.6778  155.6456 C.3     1  UNL1        0.1636
     12 C         140.1120  145.9710  156.9595 C.3     1  UNL1        0.1242
     13 C         141.8759  144.1622  161.7710 C.ar    1  UNL1        0.1170
     14 C         141.4189  144.9913  162.9345 C.ar    1  UNL1        0.0223
     15 C         142.4158  145.4875  163.9394 C.ar    1  UNL1        0.0032
     16 C         143.8698  145.1547  163.7809 C.ar    1  UNL1        0.0207
     17 C         144.3268  144.3257  162.6174 C.ar    1  UNL1        0.0989
     18 N         143.3299  143.8294  161.6125 N.ar    1  UNL1       -0.2407
     19 C         138.1999  140.7637  160.3791 C.3     1  UNL1        0.2013
     20 O         137.2435  141.0756  162.2467 O.2     1  UNL1       -0.1683
     21 S         138.2792  140.1205  161.7319 S.O2    1  UNL1        0.0144
     22 O         139.3149  139.1655  161.2171 O.2     1  UNL1       -0.1683
     23 C         138.3585  139.4774  163.0847 C.ar    1  UNL1        0.1061
     24 C         138.0214  140.2699  164.3128 C.ar    1  UNL1        0.0184
     25 C         138.1006  139.6268  165.6656 C.ar    1  UNL1        0.0013
     26 C         138.5171  138.1912  165.7903 C.ar    1  UNL1        0.0001
     27 C         138.8542  137.3987  164.5622 C.ar    1  UNL1        0.0013
     28 C         138.7749  138.0418  163.2094 C.ar    1  UNL1        0.0184
@<TRIPOS>BOND
     1    20    21    2
     2    21    22    2
     3    21    19    1
     4    19     1    1
     5     1     2   ar
     6     2     3   ar
     7     3     7    1
     8     7     8    1
     9     8     9    1
    10     9    10    1
    11    10    11    1
    12    11    12    1
    13     3     4   ar
    14     4     5   ar
    15     5    13    1
    16    13    14   ar
    17    14    15   ar
    18    15    16   ar
    19    16    17   ar
    20    17    18   ar
    21     5     6   ar
    22    21    23    1
    23    23    24   ar
    24    24    25   ar
    25    25    26   ar
    26    26    27   ar
    27    27    28   ar
    28     6     1   ar
    29    28    23   ar
    30    12     7    1
    31    18    13   ar
@<TRIPOS>MOLECULE
*****
 28 31 0 0 0
SMALL
GASTEIGER

@<TRIPOS>ATOM
      1 C         140.5966  143.9333  163.2807 C.ar    1  UNL1        0.0877
      2 C         139.9385  142.7195  162.6949 C.ar    1  UNL1        0.0508
      3 C         139.7627  141.4854  163.5292 C.ar    1  UNL1        0.1348
      4 N         140.2451  141.4652  164.9494 N.ar    1  UNL1       -0.2103
      5 C         140.9033  142.6791  165.5352 C.ar    1  UNL1        0.1811
      6 N         141.0791  143.9132  164.7008 N.ar    1  UNL1       -0.2278
      7 N         139.1045  140.2714  162.9434 N.pl3   1  UNL1       -0.2880
      8 C         139.3716  138.9169  163.5298 C.3     1  UNL1        0.1242
      9 C         138.7135  137.7030  162.9441 C.3     1  UNL1        0.1636
     10 O         137.7881  137.8435  161.7719 O.3     1  UNL1       -0.3501
     11 C         137.5210  139.1980  161.1855 C.3     1  UNL1        0.1636
     12 C         138.1792  140.4120  161.7712 C.3     1  UNL1        0.1242
     13 C         141.3858  142.6590  166.9553 C.ar    1  UNL1        0.1170
     14 C         142.8017  142.2696  167.2610 C.ar    1  UNL1        0.0223
     15 C         143.2841  142.2494  168.6811 C.ar    1  UNL1        0.0032
     16 C         142.3506  142.6187  169.7956 C.ar    1  UNL1        0.0207
     17 C         140.9347  143.0081  169.4900 C.ar    1  UNL1        0.0989
     18 N         140.4523  143.0282  168.0698 N.ar    1  UNL1       -0.2407
     19 C         140.7724  145.1675  162.4463 C.3     1  UNL1        0.2013
     20 O         142.4046  144.5605  161.2350 O.2     1  UNL1       -0.1683
     21 S         141.0107  145.0472  160.9703 S.O2    1  UNL1        0.0144
     22 O         139.6168  145.5340  160.7056 O.2     1  UNL1       -0.1683
     23 C         141.2491  144.9270  159.4942 C.ar    1  UNL1        0.1061
     24 C         140.4014  145.7049  158.5318 C.ar    1  UNL1        0.0184
     25 C         140.6397  145.5846  157.0557 C.ar    1  UNL1        0.0013
     26 C         141.7257  144.6865  156.5421 C.ar    1  UNL1        0.0001
     27 C         142.5735  143.9086  157.5045 C.ar    1  UNL1        0.0013
     28 C         142.3351  144.0289  158.9806 C.ar    1  UNL1        0.0184
@<TRIPOS>BOND
     1    20    21    2
     2    21    22    2
     3    21    19    1
     4    19     1    1
     5     1     2   ar
     6     2     3   ar
     7     3     7    1
     8     7     8    1
     9     8     9    1
    10     9    10    1
    11    10    11    1
    12    11    12    1
    13     3     4   ar
    14     4     5   ar
    15     5    13    1
    16    13    14   ar
    17    14    15   ar
    18    15    16   ar
    19    16    17   ar
    20    17    18   ar
    21     5     6   ar
    22    21    23    1
    23    23    24   ar
    24    24    25   ar
    25    25    26   ar
    26    26    27   ar
    27    27    28   ar
    28     6     1   ar
    29    28    23   ar
    30    12     7    1
    31    18    13   ar
@<TRIPOS>MOLECULE
*****
 28 31 0 0 0
SMALL
GASTEIGER

@<TRIPOS>ATOM
      1 C         140.3840  145.0169  158.6904 C.ar    1  UNL1        0.0877
      2 C         139.7413  143.7226  158.2886 C.ar    1  UNL1        0.0508
      3 C         139.1017  143.5903  156.9383 C.ar    1  UNL1        0.1348
      4 N         139.1048  144.7524  155.9898 N.ar    1  UNL1       -0.2103
      5 C         139.7476  146.0468  156.3917 C.ar    1  UNL1        0.1811
      6 N         140.3872  146.1790  157.7420 N.ar    1  UNL1       -0.2278
      7 N         138.4589  142.2960  156.5364 N.pl3   1  UNL1       -0.2880
      8 C         136.9647  142.1956  156.4501 C.3     1  UNL1        0.1242
      9 C         136.3219  140.9013  156.0482 C.3     1  UNL1        0.1636
     10 O         137.1733  139.7073  155.7326 O.3     1  UNL1       -0.3501
     11 C         138.6674  139.8076  155.8188 C.3     1  UNL1        0.1636
     12 C         139.3102  141.1020  156.2208 C.3     1  UNL1        0.1242
     13 C         139.7507  147.2088  155.4432 C.ar    1  UNL1        0.1170
     14 C         140.4787  147.1077  154.1356 C.ar    1  UNL1        0.0223
     15 C         140.4818  148.2698  153.1872 C.ar    1  UNL1        0.0032
     16 C         139.7570  149.5330  153.5463 C.ar    1  UNL1        0.0207
     17 C         139.0291  149.6341  154.8539 C.ar    1  UNL1        0.0989
     18 N         139.0259  148.4720  155.8023 N.ar    1  UNL1       -0.2407
     19 C         141.0237  145.1493  160.0408 C.3     1  UNL1        0.2013
     20 O         139.3263  145.9817  161.0028 O.2     1  UNL1       -0.1683
     21 S         140.2394  144.8238  161.2773 S.O2    1  UNL1        0.0144
     22 O         141.1526  143.6660  161.5518 O.2     1  UNL1       -0.1683
     23 C         139.4551  144.4985  162.5139 C.ar    1  UNL1        0.1061
     24 C         138.2547  143.6033  162.4267 C.ar    1  UNL1        0.0184
     25 C         137.4703  143.2779  163.6631 C.ar    1  UNL1        0.0013
     26 C         137.8864  143.8477  164.9868 C.ar    1  UNL1        0.0001
     27 C         139.0869  144.7429  165.0740 C.ar    1  UNL1        0.0013
     28 C         139.8712  145.0683  163.8375 C.ar    1  UNL1        0.0184
@<TRIPOS>BOND
     1    20    21    2
     2    21    22    2
     3    21    19    1
     4    19     1    1
     5     1     2   ar
     6     2     3   ar
     7     3     7    1
     8     7     8    1
     9     8     9    1
    10     9    10    1
    11    10    11    1
    12    11    12    1
    13     3     4   ar
    14     4     5   ar
    15     5    13    1
    16    13    14   ar
    17    14    15   ar
    18    15    16   ar
    19    16    17   ar
    20    17    18   ar
    21     5     6   ar
    22    21    23    1
    23    23    24   ar
    24    24    25   ar
    25    25    26   ar
    26    26    27   ar
    27    27    28   ar
    28     6     1   ar
    29    28    23   ar
    30    12     7    1
    31    18    13   ar
@<TRIPOS>MOLECULE
*****
 28 31 0 0 0
SMALL
GASTEIGER

@<TRIPOS>ATOM
      1 C         143.3329  139.6314  159.6451 C.ar    1  UNL1        0.0877
      2 C         143.0251  140.7599  160.5839 C.ar    1  UNL1        0.0508
      3 C         143.5487  142.1364  160.2992 C.ar    1  UNL1        0.1348
      4 N         144.3802  142.3843  159.0756 N.ar    1  UNL1       -0.2103
      5 C         144.6880  141.2557  158.1367 C.ar    1  UNL1        0.1811
      6 N         144.1644  139.8793  158.4214 N.ar    1  UNL1       -0.2278
      7 N         143.2409  143.2650  161.2381 N.pl3   1  UNL1       -0.2880
      8 C         144.2759  143.7266  162.2208 C.3     1  UNL1        0.1242
      9 C         143.9682  144.8552  163.1597 C.3     1  UNL1        0.1636
     10 O         142.6254  145.5223  163.1159 O.3     1  UNL1       -0.3501
     11 C         141.5903  145.0607  162.1332 C.3     1  UNL1        0.1636
     12 C         141.8981  143.9321  161.1943 C.3     1  UNL1        0.1242
     13 C         145.5194  141.5036  156.9131 C.ar    1  UNL1        0.1170
     14 C         145.2285  140.7575  155.6448 C.ar    1  UNL1        0.0223
     15 C         146.0599  141.0054  154.4212 C.ar    1  UNL1        0.0032
     16 C         147.1824  141.9994  154.4659 C.ar    1  UNL1        0.0207
     17 C         147.4733  142.7456  155.7342 C.ar    1  UNL1        0.0989
     18 N         146.6419  142.4977  156.9578 N.ar    1  UNL1       -0.2407
     19 C         142.8093  138.2548  159.9298 C.3     1  UNL1        0.2013
     20 O         140.7078  138.3089  160.2138 O.2     1  UNL1       -0.1683
     21 S         141.8901  138.0278  161.0931 S.O2    1  UNL1        0.0144
     22 O         143.0723  137.7467  161.9724 O.2     1  UNL1       -0.1683
     23 C         140.9707  137.8008  162.2565 C.ar    1  UNL1        0.1061
     24 C         141.5364  137.4726  163.6065 C.ar    1  UNL1        0.0184
     25 C         140.6172  137.2456  164.7698 C.ar    1  UNL1        0.0013
     26 C         139.1323  137.3468  164.5832 C.ar    1  UNL1        0.0001
     27 C         138.5666  137.6750  163.2333 C.ar    1  UNL1        0.0013
     28 C         139.4859  137.9020  162.0699 C.ar    1  UNL1        0.0184
@<TRIPOS>BOND
     1    20    21    2
     2    21    22    2
     3    21    19    1
     4    19     1    1
     5     1     2   ar
     6     2     3   ar
     7     3     7    1
     8     7     8    1
     9     8     9    1
    10     9    10    1
    11    10    11    1
    12    11    12    1
    13     3     4   ar
    14     4     5   ar
    15     5    13    1
    16    13    14   ar
    17    14    15   ar
    18    15    16   ar
    19    16    17   ar
    20    17    18   ar
    21     5     6   ar
    22    21    23    1
    23    23    24   ar
    24    24    25   ar
    25    25    26   ar
    26    26    27   ar
    27    27    28   ar
    28     6     1   ar
    29    28    23   ar
    30    12     7    1
    31    18    13   ar
@<TRIPOS>MOLECULE
*****
 28 31 0 0 0
SMALL
GASTEIGER

@<TRIPOS>ATOM
      1 C         142.1639  137.3603  157.7849 C.ar    1  UNL1        0.0877
      2 C         141.0995  137.5858  156.7523 C.ar    1  UNL1        0.0508
      3 C         140.8473  136.5504  155.6968 C.ar    1  UNL1        0.1348
      4 N         141.6594  135.2894  155.6738 N.ar    1  UNL1       -0.2103
      5 C         142.7238  135.0639  156.7064 C.ar    1  UNL1        0.1811
      6 N         142.9760  136.0994  157.7620 N.ar    1  UNL1       -0.2278
      7 N         139.7830  136.7758  154.6641 N.pl3   1  UNL1       -0.2880
      8 C         138.4900  137.4310  155.0504 C.3     1  UNL1        0.1242
      9 C         137.4257  137.6565  154.0178 C.3     1  UNL1        0.1636
     10 O         137.6542  137.2268  152.5989 O.3     1  UNL1       -0.3501
     11 C         138.9471  136.5717  152.2126 C.3     1  UNL1        0.1636
     12 C         140.0115  136.3462  153.2453 C.3     1  UNL1        0.1242
     13 C         143.5359  133.8030  156.6835 C.ar    1  UNL1        0.1170
     14 C         143.4971  132.9077  155.4806 C.ar    1  UNL1        0.0223
     15 C         144.3092  131.6468  155.4577 C.ar    1  UNL1        0.0032
     16 C         145.1601  131.2811  156.6376 C.ar    1  UNL1        0.0207
     17 C         145.1989  132.1764  157.8405 C.ar    1  UNL1        0.0989
     18 N         144.3868  133.4373  157.8634 N.ar    1  UNL1       -0.2407
     19 C         142.4161  138.3958  158.8406 C.3     1  UNL1        0.2013
     20 O         143.1536  137.6230  160.6733 O.2     1  UNL1       -0.1683
     21 S         141.8524  138.2146  160.2187 S.O2    1  UNL1        0.0144
     22 O         140.5511  138.8062  159.7642 O.2     1  UNL1       -0.1683
     23 C         141.2886  138.0335  161.5969 C.ar    1  UNL1        0.1061
     24 C         142.2093  137.9387  162.7773 C.ar    1  UNL1        0.0184
     25 C         141.6457  137.7576  164.1555 C.ar    1  UNL1        0.0013
     26 C         140.1613  137.6712  164.3533 C.ar    1  UNL1        0.0001
     27 C         139.2406  137.7659  163.1729 C.ar    1  UNL1        0.0013
     28 C         139.8043  137.9471  161.7947 C.ar    1  UNL1        0.0184
@<TRIPOS>BOND
     1    20    21    2
     2    21    22    2
     3    21    19    1
     4    19     1    1
     5     1     2   ar
     6     2     3   ar
     7     3     7    1
     8     7     8    1
     9     8     9    1
    10     9    10    1
    11    10    11    1
    12    11    12    1
    13     3     4   ar
    14     4     5   ar
    15     5    13    1
    16    13    14   ar
    17    14    15   ar
    18    15    16   ar
    19    16    17   ar
    20    17    18   ar
    21     5     6   ar
    22    21    23    1
    23    23    24   ar
    24    24    25   ar
    25    25    26   ar
    26    26    27   ar
    27    27    28   ar
    28     6     1   ar
    29    28    23   ar
    30    12     7    1
    31    18    13   ar
@<TRIPOS>MOLECULE
*****
 28 31 0 0 0
SMALL
GASTEIGER

@<TRIPOS>ATOM
      1 C         142.0623  137.4331  157.8458 C.ar    1  UNL1        0.0877
      2 C         142.8803  136.1773  157.7829 C.ar    1  UNL1        0.0508
      3 C         142.6038  135.1546  156.7210 C.ar    1  UNL1        0.1348
      4 N         141.5093  135.3876  155.7221 N.ar    1  UNL1       -0.2103
      5 C         140.6913  136.6433  155.7851 C.ar    1  UNL1        0.1811
      6 N         140.9678  137.6660  156.8469 N.ar    1  UNL1       -0.2278
      7 N         143.4218  133.8988  156.6581 N.pl3   1  UNL1       -0.2880
      8 C         144.2946  133.5135  157.8155 C.3     1  UNL1        0.1242
      9 C         145.1126  132.2578  157.7526 C.3     1  UNL1        0.1636
     10 O         145.0578  131.3873  156.5322 O.3     1  UNL1       -0.3501
     11 C         144.1849  131.7725  155.3748 C.3     1  UNL1        0.1636
     12 C         143.3669  133.0284  155.4377 C.3     1  UNL1        0.1242
     13 C         139.5968  136.8763  154.7862 C.ar    1  UNL1        0.1170
     14 C         139.8034  136.5065  153.3472 C.ar    1  UNL1        0.0223
     15 C         138.7090  136.7395  152.3483 C.ar    1  UNL1        0.0032
     16 C         137.4078  137.3423  152.7883 C.ar    1  UNL1        0.0207
     17 C         137.2012  137.7120  154.2273 C.ar    1  UNL1        0.0989
     18 N         138.2957  137.4791  155.2262 N.ar    1  UNL1       -0.2407
     19 C         142.3388  138.4559  158.9076 C.3     1  UNL1        0.2013
     20 O         143.2018  137.9537  160.7792 O.2     1  UNL1       -0.1683
     21 S         141.8133  138.2544  160.2980 S.O2    1  UNL1        0.0144
     22 O         140.4248  138.5551  159.8168 O.2     1  UNL1       -0.1683
     23 C         141.2878  138.0529  161.6885 C.ar    1  UNL1        0.1061
     24 C         139.8108  137.9364  161.9225 C.ar    1  UNL1        0.0184
     25 C         139.2853  137.7349  163.3129 C.ar    1  UNL1        0.0013
     26 C         140.2368  137.6499  164.4693 C.ar    1  UNL1        0.0001
     27 C         141.7139  137.7664  164.2353 C.ar    1  UNL1        0.0013
     28 C         142.2394  137.9679  162.8449 C.ar    1  UNL1        0.0184
@<TRIPOS>BOND
     1    20    21    2
     2    21    22    2
     3    21    19    1
     4    19     1    1
     5     1     2   ar
     6     2     3   ar
     7     3     7    1
     8     7     8    1
     9     8     9    1
    10     9    10    1
    11    10    11    1
    12    11    12    1
    13     3     4   ar
    14     4     5   ar
    15     5    13    1
    16    13    14   ar
    17    14    15   ar
    18    15    16   ar
    19    16    17   ar
    20    17    18   ar
    21     5     6   ar
    22    21    23    1
    23    23    24   ar
    24    24    25   ar
    25    25    26   ar
    26    26    27   ar
    27    27    28   ar
    28     6     1   ar
    29    28    23   ar
    30    12     7    1
    31    18    13   ar
@<TRIPOS>MOLECULE
*****
 28 31 0 0 0
SMALL
GASTEIGER

@<TRIPOS>ATOM
      1 C         142.1157  137.8549  157.2133 C.ar    1  UNL1        0.0877
      2 C         142.8707  136.5596  157.2582 C.ar    1  UNL1        0.0508
      3 C         142.4371  135.4086  156.3997 C.ar    1  UNL1        0.1348
      4 N         141.2484  135.5528  155.4963 N.ar    1  UNL1       -0.2103
      5 C         140.4933  136.8481  155.4514 C.ar    1  UNL1        0.1811
      6 N         140.9270  137.9991  156.3098 N.ar    1  UNL1       -0.2278
      7 N         143.1922  134.1132  156.4446 N.pl3   1  UNL1       -0.2880
      8 C         143.1483  133.1785  155.2723 C.3     1  UNL1        0.1242
      9 C         143.9034  131.8832  155.3171 C.3     1  UNL1        0.1636
     10 O         144.7023  131.5225  156.5344 O.3     1  UNL1       -0.3501
     11 C         144.7461  132.4572  157.7068 C.3     1  UNL1        0.1636
     12 C         143.9911  133.7526  157.6619 C.3     1  UNL1        0.1242
     13 C         139.3046  136.9924  154.5479 C.ar    1  UNL1        0.1170
     14 C         139.4018  136.5802  153.1090 C.ar    1  UNL1        0.0223
     15 C         138.2131  136.7244  152.2056 C.ar    1  UNL1        0.0032
     16 C         136.9272  137.2809  152.7411 C.ar    1  UNL1        0.0207
     17 C         136.8301  137.6931  154.1800 C.ar    1  UNL1        0.0989
     18 N         138.0188  137.5488  155.0834 N.ar    1  UNL1       -0.2407
     19 C         142.5493  139.0060  158.0718 C.3     1  UNL1        0.2013
     20 O         141.1663  138.5010  159.5989 O.2     1  UNL1       -0.1683
     21 S         142.6261  138.8438  159.5610 S.O2    1  UNL1        0.0144
     22 O         144.0858  139.1866  159.5231 O.2     1  UNL1       -0.1683
     23 C         142.7028  138.6815  161.0503 C.ar    1  UNL1        0.1061
     24 C         143.8779  139.2291  161.8048 C.ar    1  UNL1        0.0184
     25 C         143.9546  139.0669  163.2940 C.ar    1  UNL1        0.0013
     26 C         142.8562  138.3571  164.0286 C.ar    1  UNL1        0.0001
     27 C         141.6811  137.8096  163.2741 C.ar    1  UNL1        0.0013
     28 C         141.6044  137.9718  161.7849 C.ar    1  UNL1        0.0184
@<TRIPOS>BOND
     1    20    21    2
     2    21    22    2
     3    21    19    1
     4    19     1    1
     5     1     2   ar
     6     2     3   ar
     7     3     7    1
     8     7     8    1
     9     8     9    1
    10     9    10    1
    11    10    11    1
    12    11    12    1
    13     3     4   ar
    14     4     5   ar
    15     5    13    1
    16    13    14   ar
    17    14    15   ar
    18    15    16   ar
    19    16    17   ar
    20    17    18   ar
    21     5     6   ar
    22    21    23    1
    23    23    24   ar
    24    24    25   ar
    25    25    26   ar
    26    26    27   ar
    27    27    28   ar
    28     6     1   ar
    29    28    23   ar
    30    12     7    1
    31    18    13   ar
@<TRIPOS>MOLECULE
*****
 28 31 0 0 0
SMALL
GASTEIGER

@<TRIPOS>ATOM
      1 C         139.7480  139.6162  162.9198 C.ar    1  UNL1        0.0877
      2 C         139.6413  141.1086  162.8144 C.ar    1  UNL1        0.0508
      3 C         139.9327  141.7912  161.5110 C.ar    1  UNL1        0.1348
      4 N         140.3310  140.9814  160.3128 N.ar    1  UNL1       -0.2103
      5 C         140.4377  139.4889  160.4182 C.ar    1  UNL1        0.1811
      6 N         140.1463  138.8063  161.7216 N.ar    1  UNL1       -0.2278
      7 N         139.8260  143.2837  161.4056 N.pl3   1  UNL1       -0.2880
      8 C         139.2535  144.0768  162.5428 C.3     1  UNL1        0.1242
      9 C         139.1468  145.5693  162.4375 C.3     1  UNL1        0.1636
     10 O         139.6125  146.2687  161.1949 O.3     1  UNL1       -0.3501
     11 C         140.1849  145.4756  160.0577 C.3     1  UNL1        0.1636
     12 C         140.2917  143.9831  160.1630 C.3     1  UNL1        0.1242
     13 C         140.8360  138.6790  159.2200 C.ar    1  UNL1        0.1170
     14 C         139.8196  138.3460  158.1684 C.ar    1  UNL1        0.0223
     15 C         140.2179  137.5361  156.9702 C.ar    1  UNL1        0.0032
     16 C         141.6325  137.0593  156.8237 C.ar    1  UNL1        0.0207
     17 C         142.6488  137.3924  157.8754 C.ar    1  UNL1        0.0989
     18 N         142.2506  138.2022  159.0735 N.ar    1  UNL1       -0.2407
     19 C         139.4565  138.9335  164.2233 C.3     1  UNL1        0.2013
     20 O         141.1062  139.5146  165.4236 O.2     1  UNL1       -0.1683
     21 S         139.6182  139.6807  165.5138 S.O2    1  UNL1        0.0144
     22 O         138.1301  139.8468  165.6040 O.2     1  UNL1       -0.1683
     23 C         139.7798  140.4279  166.8044 C.ar    1  UNL1        0.1061
     24 C         139.2877  139.8251  168.0868 C.ar    1  UNL1        0.0184
     25 C         139.4493  140.5723  169.3773 C.ar    1  UNL1        0.0013
     26 C         140.1031  141.9222  169.3855 C.ar    1  UNL1        0.0001
     27 C         140.5952  142.5250  168.1032 C.ar    1  UNL1        0.0013
     28 C         140.4336  141.7779  166.8126 C.ar    1  UNL1        0.0184
@<TRIPOS>BOND
     1    20    21    2
     2    21    22    2
     3    21    19    1
     4    19     1    1
     5     1     2   ar
     6     2     3   ar
     7     3     7    1
     8     7     8    1
     9     8     9    1
    10     9    10    1
    11    10    11    1
    12    11    12    1
    13     3     4   ar
    14     4     5   ar
    15     5    13    1
    16    13    14   ar
    17    14    15   ar
    18    15    16   ar
    19    16    17   ar
    20    17    18   ar
    21     5     6   ar
    22    21    23    1
    23    23    24   ar
    24    24    25   ar
    25    25    26   ar
    26    26    27   ar
    27    27    28   ar
    28     6     1   ar
    29    28    23   ar
    30    12     7    1
    31    18    13   ar
@<TRIPOS>MOLECULE
*****
 28 31 0 0 0
SMALL
GASTEIGER

@<TRIPOS>ATOM
      1 C         142.5181  139.9035  163.5319 C.ar    1  UNL1        0.0877
      2 C         141.6656  140.9983  162.9622 C.ar    1  UNL1        0.0508
      3 C         141.0998  142.0547  163.8642 C.ar    1  UNL1        0.1348
      4 N         141.3866  142.0164  165.3361 N.ar    1  UNL1       -0.2103
      5 C         142.2392  140.9217  165.9058 C.ar    1  UNL1        0.1811
      6 N         142.8049  139.8652  165.0037 N.ar    1  UNL1       -0.2278
      7 N         140.2472  143.1496  163.2945 N.pl3   1  UNL1       -0.2880
      8 C         140.8821  144.2754  162.5334 C.3     1  UNL1        0.1242
      9 C         140.0296  145.3702  161.9636 C.3     1  UNL1        0.1636
     10 O         138.5421  145.3392  162.1550 O.3     1  UNL1       -0.3501
     11 C         137.9072  144.2133  162.9162 C.3     1  UNL1        0.1636
     12 C         138.7598  143.1185  163.4859 C.3     1  UNL1        0.1242
     13 C         142.5260  140.8834  167.3776 C.ar    1  UNL1        0.1170
     14 C         143.0895  142.0924  168.0636 C.ar    1  UNL1        0.0223
     15 C         143.3763  142.0541  169.5355 C.ar    1  UNL1        0.0032
     16 C         143.0996  140.8068  170.3213 C.ar    1  UNL1        0.0207
     17 C         142.5360  139.5978  169.6353 C.ar    1  UNL1        0.0989
     18 N         142.2492  139.6361  168.1635 N.ar    1  UNL1       -0.2407
     19 C         143.0839  138.8470  162.6298 C.3     1  UNL1        0.2013
     20 O         141.3895  137.7873  161.9186 O.2     1  UNL1       -0.1683
     21 S         142.4726  138.6062  161.2814 S.O2    1  UNL1        0.0144
     22 O         143.5558  139.4250  160.6441 O.2     1  UNL1       -0.1683
     23 C         141.8613  138.3653  159.9329 C.ar    1  UNL1        0.1061
     24 C         140.4089  138.6618  159.7041 C.ar    1  UNL1        0.0184
     25 C         139.7975  138.4210  158.3557 C.ar    1  UNL1        0.0013
     26 C         140.6387  137.8836  157.2361 C.ar    1  UNL1        0.0001
     27 C         142.0912  137.5870  157.4649 C.ar    1  UNL1        0.0013
     28 C         142.7025  137.8279  158.8133 C.ar    1  UNL1        0.0184
@<TRIPOS>BOND
     1    20    21    2
     2    21    22    2
     3    21    19    1
     4    19     1    1
     5     1     2   ar
     6     2     3   ar
     7     3     7    1
     8     7     8    1
     9     8     9    1
    10     9    10    1
    11    10    11    1
    12    11    12    1
    13     3     4   ar
    14     4     5   ar
    15     5    13    1
    16    13    14   ar
    17    14    15   ar
    18    15    16   ar
    19    16    17   ar
    20    17    18   ar
    21     5     6   ar
    22    21    23    1
    23    23    24   ar
    24    24    25   ar
    25    25    26   ar
    26    26    27   ar
    27    27    28   ar
    28     6     1   ar
    29    28    23   ar
    30    12     7    1
    31    18    13   ar
