@<TRIPOS>MOLECULE
*****
 39 43 0 0 0
SMALL
GASTEIGER

@<TRIPOS>ATOM
      1 C         140.6869  140.9914  167.7882 C.ar    1  UNL1        0.0222
      2 C         139.8910  140.5552  168.9826 C.ar    1  UNL1        0.0032
      3 C         140.5758  139.8820  170.1349 C.ar    1  UNL1        0.0207
      4 C         142.0564  139.6448  170.0929 C.ar    1  UNL1        0.0990
      5 N         142.8522  140.0810  168.8986 N.ar    1  UNL1       -0.2393
      6 C         142.1674  140.7542  167.7462 C.ar    1  UNL1        0.1346
      7 C         142.9633  141.1904  166.5519 C.2     1  UNL1        0.2668
      8 O         143.6904  142.5022  166.5735 O.2     1  UNL1       -0.2683
      9 N         143.0321  140.3147  165.3360 N.am    1  UNL1       -0.2747
     10 C         142.3051  139.0029  165.3144 C.3     1  UNL1        0.0955
     11 C         142.3738  138.1272  164.0985 C.3     1  UNL1        0.0410
     12 C         143.1697  138.5633  162.9041 C.3     1  UNL1        0.0724
     13 C         143.8968  139.8752  162.9257 C.3     1  UNL1        0.0410
     14 C         143.8280  140.7509  164.1417 C.3     1  UNL1        0.0955
     15 N         143.2385  137.6876  161.6883 N.pl3   1  UNL1       -0.3339
     16 H         143.8999  136.9599  161.6426 H       1  UNL1        0.1468
     17 C         142.2996  137.9208  160.5420 C.ar    1  UNL1        0.0447
     18 C         142.7841  137.7619  159.1313 C.ar    1  UNL1        0.0166
     19 C         141.8452  137.9951  157.9850 C.ar    1  UNL1        0.0309
     20 C         140.4217  138.3871  158.2494 C.ar    1  UNL1        0.1402
     21 F         139.4827  138.6203  157.1031 F       1  UNL1       -0.2042
     22 C         139.9371  138.5460  159.6600 C.ar    1  UNL1        0.0309
     23 C         140.8761  138.3128  160.8063 C.ar    1  UNL1        0.0166
     24 C         138.6328  143.0112  164.3312 C.ar    1  UNL1       -0.0061
     25 C         138.4899  141.5309  164.5275 C.ar    1  UNL1       -0.0029
     26 C         139.1746  140.8576  165.6799 C.ar    1  UNL1       -0.0002
     27 C         140.0022  141.6646  166.6359 C.ar    1  UNL1        0.0016
     28 C         140.1451  143.1448  166.4395 C.ar    1  UNL1       -0.0002
     29 C         139.4604  143.8181  165.2872 C.ar    1  UNL1       -0.0029
     30 C         137.9481  143.6844  163.1788 C.3     1  UNL1        0.0992
     31 C         141.2904  145.3606  159.5706 C.3     1  UNL1        0.0186
     32 C         140.1996  144.4225  159.9952 C.3     1  UNL1        0.0702
     33 C         139.6192  144.5225  161.3747 C.3     1  UNL1        0.0882
     34 N         138.5285  143.5844  161.7993 N.3     1  UNL1       -0.2666
     35 C         138.0182  142.5463  160.8443 C.3     1  UNL1        0.0882
     36 C         138.5986  142.4463  159.4648 C.3     1  UNL1        0.0702
     37 C         138.0883  141.4082  158.5098 C.3     1  UNL1        0.0186
     38 N         139.6893  143.3844  159.0402 N.3     1  UNL1       -0.2974
     39 H         139.3459  143.8830  158.2193 H       1  UNL1        0.1232
@<TRIPOS>BOND
     1    32    31    1
     2    32    33    1
     3    33    34    1
     4    34    30    1
     5    30    24    1
     6    24    25   ar
     7    25    26   ar
     8    26    27   ar
     9    27     1    1
    10     1     2   ar
    11     2     3   ar
    12     3     4   ar
    13     4     5   ar
    14     5     6   ar
    15     6     7    1
    16     7     8    2
    17     7     9   am
    18     9    10    1
    19    10    11    1
    20    11    12    1
    21    12    15    1
    22    15    17    1
    23    17    18   ar
    24    18    19   ar
    25    19    20   ar
    26    20    21    1
    27    20    22   ar
    28    22    23   ar
    29    12    13    1
    30    13    14    1
    31    27    28   ar
    32    28    29   ar
    33    34    35    1
    34    35    36    1
    35    36    37    1
    36    36    38    1
    37    38    32    1
    38    29    24   ar
    39     6     1   ar
    40    14     9    1
    41    23    17   ar
    42    15    16    1
    43    38    39    1
@<TRIPOS>MOLECULE
*****
 39 43 0 0 0
SMALL
GASTEIGER

@<TRIPOS>ATOM
      1 C         141.2053  141.8131  167.9869 C.ar    1  UNL1        0.0222
      2 C         140.5409  142.6978  168.9998 C.ar    1  UNL1        0.0032
      3 C         139.8861  142.0952  170.2074 C.ar    1  UNL1        0.0207
      4 C         139.8958  140.6078  170.4019 C.ar    1  UNL1        0.0990
      5 N         140.5602  139.7232  169.3891 N.ar    1  UNL1       -0.2393
      6 C         141.2149  140.3259  168.1815 C.ar    1  UNL1        0.1346
      7 C         141.8793  139.4412  167.1686 C.2     1  UNL1        0.2668
      8 O         143.3092  139.0285  167.3563 O.2     1  UNL1       -0.2683
      9 N         141.1139  138.9692  165.9681 N.am    1  UNL1       -0.2747
     10 C         139.6841  139.3819  165.7804 C.3     1  UNL1        0.0955
     11 C         138.9186  138.9099  164.5799 C.3     1  UNL1        0.0410
     12 C         139.5830  138.0252  163.5670 C.3     1  UNL1        0.0724
     13 C         141.0129  137.6125  163.7546 C.3     1  UNL1        0.0410
     14 C         141.7783  138.0846  164.9552 C.3     1  UNL1        0.0955
     15 N         138.8176  137.5532  162.3664 N.pl3   1  UNL1       -0.3339
     16 H         138.3438  136.6906  162.3926 H       1  UNL1        0.1468
     17 C         138.7740  138.3955  161.1260 C.ar    1  UNL1        0.0447
     18 C         139.8618  138.2766  160.1001 C.ar    1  UNL1        0.0166
     19 C         139.8182  139.1189  158.8597 C.ar    1  UNL1        0.0309
     20 C         138.6868  140.0801  158.6452 C.ar    1  UNL1        0.1402
     21 F         138.6432  140.9224  157.4047 F       1  UNL1       -0.2042
     22 C         137.5990  140.1990  159.6711 C.ar    1  UNL1        0.0309
     23 C         137.6426  139.3567  160.9115 C.ar    1  UNL1        0.0166
     24 C         143.1696  143.6211  164.3644 C.ar    1  UNL1       -0.0061
     25 C         141.6756  143.5019  164.4264 C.ar    1  UNL1       -0.0029
     26 C         141.0208  142.8992  165.6339 C.ar    1  UNL1       -0.0002
     27 C         141.8601  142.4158  166.7794 C.ar    1  UNL1        0.0016
     28 C         143.3540  142.5350  166.7173 C.ar    1  UNL1       -0.0002
     29 C         144.0088  143.1377  165.5098 C.ar    1  UNL1       -0.0029
     30 C         143.8244  144.2237  163.1569 C.3     1  UNL1        0.0992
     31 C         140.2996  144.9613  159.4109 C.3     1  UNL1        0.0186
     32 C         141.5387  144.2811  159.9130 C.3     1  UNL1        0.0702
     33 C         142.0620  144.5925  161.2838 C.3     1  UNL1        0.0882
     34 N         143.3010  143.9123  161.7860 N.3     1  UNL1       -0.2666
     35 C         144.0167  142.9208  160.9174 C.3     1  UNL1        0.0882
     36 C         143.4933  142.6094  159.5466 C.3     1  UNL1        0.0702
     37 C         144.2090  141.6178  158.6779 C.3     1  UNL1        0.0186
     38 N         142.2543  143.2896  159.0444 N.3     1  UNL1       -0.2974
     39 H         141.5835  142.5537  158.8233 H       1  UNL1        0.1232
@<TRIPOS>BOND
     1    32    31    1
     2    32    33    1
     3    33    34    1
     4    34    30    1
     5    30    24    1
     6    24    25   ar
     7    25    26   ar
     8    26    27   ar
     9    27     1    1
    10     1     2   ar
    11     2     3   ar
    12     3     4   ar
    13     4     5   ar
    14     5     6   ar
    15     6     7    1
    16     7     8    2
    17     7     9   am
    18     9    10    1
    19    10    11    1
    20    11    12    1
    21    12    15    1
    22    15    17    1
    23    17    18   ar
    24    18    19   ar
    25    19    20   ar
    26    20    21    1
    27    20    22   ar
    28    22    23   ar
    29    12    13    1
    30    13    14    1
    31    27    28   ar
    32    28    29   ar
    33    34    35    1
    34    35    36    1
    35    36    37    1
    36    36    38    1
    37    38    32    1
    38    29    24   ar
    39     6     1   ar
    40    14     9    1
    41    23    17   ar
    42    15    16    1
    43    38    39    1
@<TRIPOS>MOLECULE
*****
 39 43 0 0 0
SMALL
GASTEIGER

@<TRIPOS>ATOM
      1 C         141.1943  141.7967  168.0106 C.ar    1  UNL1        0.0222
      2 C         140.5384  142.6754  169.0342 C.ar    1  UNL1        0.0032
      3 C         139.8911  142.0655  170.2421 C.ar    1  UNL1        0.0207
      4 C         139.8995  140.5768  170.4263 C.ar    1  UNL1        0.0990
      5 N         140.5554  139.6982  169.4027 N.ar    1  UNL1       -0.2393
      6 C         141.2027  140.3081  168.1949 C.ar    1  UNL1        0.1346
      7 C         141.8586  139.4293  167.1713 C.2     1  UNL1        0.2668
      8 O         143.2887  139.0123  167.3466 O.2     1  UNL1       -0.2683
      9 N         141.0843  138.9677  165.9724 N.am    1  UNL1       -0.2747
     10 C         139.6542  139.3847  165.7971 C.3     1  UNL1        0.0955
     11 C         138.8799  138.9231  164.5982 C.3     1  UNL1        0.0410
     12 C         139.5357  138.0443  163.5746 C.3     1  UNL1        0.0724
     13 C         140.9659  137.6273  163.7499 C.3     1  UNL1        0.0410
     14 C         141.7402  138.0890  164.9489 C.3     1  UNL1        0.0955
     15 N         138.7614  137.5827  162.3757 N.pl3   1  UNL1       -0.3339
     16 H         138.2581  136.7373  162.4105 H       1  UNL1        0.1468
     17 C         138.7540  138.4091  161.1239 C.ar    1  UNL1        0.0447
     18 C         139.8607  138.2629  160.1221 C.ar    1  UNL1        0.0166
     19 C         139.8532  139.0893  158.8703 C.ar    1  UNL1        0.0309
     20 C         138.7390  140.0619  158.6203 C.ar    1  UNL1        0.1402
     21 F         138.7316  140.8883  157.3685 F       1  UNL1       -0.2042
     22 C         137.6323  140.2081  159.6222 C.ar    1  UNL1        0.0309
     23 C         137.6397  139.3817  160.8740 C.ar    1  UNL1        0.0166
     24 C         143.1364  143.6264  164.3871 C.ar    1  UNL1       -0.0061
     25 C         143.9842  143.0984  165.5062 C.ar    1  UNL1       -0.0029
     26 C         143.3369  142.4885  166.7141 C.ar    1  UNL1       -0.0002
     27 C         141.8417  142.4066  166.8028 C.ar    1  UNL1        0.0016
     28 C         140.9940  142.9346  165.6836 C.ar    1  UNL1       -0.0002
     29 C         141.6413  143.5445  164.4758 C.ar    1  UNL1       -0.0029
     30 C         143.7838  144.2363  163.1792 C.3     1  UNL1        0.0992
     31 C         144.1535  141.4811  158.7892 C.3     1  UNL1        0.0186
     32 C         143.4606  142.5261  159.6126 C.3     1  UNL1        0.0702
     33 C         143.9686  142.8587  160.9841 C.3     1  UNL1        0.0882
     34 N         143.2758  143.9037  161.8075 N.3     1  UNL1       -0.2666
     35 C         142.0750  144.6161  161.2594 C.3     1  UNL1        0.0882
     36 C         141.5670  144.2835  159.8878 C.3     1  UNL1        0.0702
     37 C         140.3661  144.9958  159.3395 C.3     1  UNL1        0.0186
     38 N         142.2598  143.2385  159.0644 N.3     1  UNL1       -0.2974
     39 H         142.5559  143.6928  158.2005 H       1  UNL1        0.1232
@<TRIPOS>BOND
     1    32    31    1
     2    32    33    1
     3    33    34    1
     4    34    30    1
     5    30    24    1
     6    24    25   ar
     7    25    26   ar
     8    26    27   ar
     9    27     1    1
    10     1     2   ar
    11     2     3   ar
    12     3     4   ar
    13     4     5   ar
    14     5     6   ar
    15     6     7    1
    16     7     8    2
    17     7     9   am
    18     9    10    1
    19    10    11    1
    20    11    12    1
    21    12    15    1
    22    15    17    1
    23    17    18   ar
    24    18    19   ar
    25    19    20   ar
    26    20    21    1
    27    20    22   ar
    28    22    23   ar
    29    12    13    1
    30    13    14    1
    31    27    28   ar
    32    28    29   ar
    33    34    35    1
    34    35    36    1
    35    36    37    1
    36    36    38    1
    37    38    32    1
    38    29    24   ar
    39     6     1   ar
    40    14     9    1
    41    23    17   ar
    42    15    16    1
    43    38    39    1
@<TRIPOS>MOLECULE
*****
 39 43 0 0 0
SMALL
GASTEIGER

@<TRIPOS>ATOM
      1 C         141.8303  141.8598  167.4305 C.ar    1  UNL1        0.0222
      2 C         142.6758  142.5063  168.4876 C.ar    1  UNL1        0.0032
      3 C         143.2367  141.6813  169.6078 C.ar    1  UNL1        0.0207
      4 C         142.9521  140.2098  169.6709 C.ar    1  UNL1        0.0990
      5 N         142.1066  139.5634  168.6139 N.ar    1  UNL1       -0.2393
      6 C         141.5458  140.3884  167.4937 C.ar    1  UNL1        0.1346
      7 C         140.7003  139.7419  166.4366 C.2     1  UNL1        0.2668
      8 O         139.2140  139.6502  166.6172 O.2     1  UNL1       -0.2683
      9 N         141.3411  139.1872  165.1991 N.am    1  UNL1       -0.2747
     10 C         142.8274  139.2790  165.0185 C.3     1  UNL1        0.0955
     11 C         143.4682  138.7243  163.7809 C.3     1  UNL1        0.0410
     12 C         142.6227  138.0778  162.7238 C.3     1  UNL1        0.0724
     13 C         141.1364  137.9861  162.9044 C.3     1  UNL1        0.0410
     14 C         140.4956  138.5408  164.1421 C.3     1  UNL1        0.0955
     15 N         143.2635  137.5231  161.4862 N.pl3   1  UNL1       -0.3339
     16 H         143.6834  136.6329  161.5061 H       1  UNL1        0.1468
     17 C         143.2644  138.3247  160.2184 C.ar    1  UNL1        0.0447
     18 C         142.6996  137.7372  158.9592 C.ar    1  UNL1        0.0166
     19 C         142.7005  138.5388  157.6913 C.ar    1  UNL1        0.0309
     20 C         143.2663  139.9280  157.6827 C.ar    1  UNL1        0.1402
     21 F         143.2673  140.7296  156.4149 F       1  UNL1       -0.2042
     22 C         143.8311  140.5155  158.9420 C.ar    1  UNL1        0.0309
     23 C         143.8302  139.7139  160.2098 C.ar    1  UNL1        0.0166
     24 C         140.1478  144.3347  164.0699 C.ar    1  UNL1       -0.0061
     25 C         139.3164  144.0596  165.2879 C.ar    1  UNL1       -0.0029
     26 C         139.8773  143.2347  166.4081 C.ar    1  UNL1       -0.0002
     27 C         141.2695  142.6848  166.3103 C.ar    1  UNL1        0.0016
     28 C         142.1007  142.9599  165.0925 C.ar    1  UNL1       -0.0002
     29 C         141.5399  143.7848  163.9723 C.ar    1  UNL1       -0.0029
     30 C         139.5869  145.1597  162.9497 C.3     1  UNL1        0.0992
     31 C         140.8730  145.7391  157.9487 C.3     1  UNL1        0.0186
     32 C         140.2547  144.9229  159.0448 C.3     1  UNL1        0.0702
     33 C         140.2300  145.4493  160.4492 C.3     1  UNL1        0.0882
     34 N         139.6116  144.6332  161.5453 N.3     1  UNL1       -0.2666
     35 C         139.0180  143.2906  161.2371 C.3     1  UNL1        0.0882
     36 C         139.0427  142.7642  159.8328 C.3     1  UNL1        0.0702
     37 C         138.4491  141.4215  159.5246 C.3     1  UNL1        0.0186
     38 N         139.6611  143.5803  158.7367 N.3     1  UNL1       -0.2974
     39 H         138.9342  143.7332  158.0376 H       1  UNL1        0.1232
@<TRIPOS>BOND
     1    32    31    1
     2    32    33    1
     3    33    34    1
     4    34    30    1
     5    30    24    1
     6    24    25   ar
     7    25    26   ar
     8    26    27   ar
     9    27     1    1
    10     1     2   ar
    11     2     3   ar
    12     3     4   ar
    13     4     5   ar
    14     5     6   ar
    15     6     7    1
    16     7     8    2
    17     7     9   am
    18     9    10    1
    19    10    11    1
    20    11    12    1
    21    12    15    1
    22    15    17    1
    23    17    18   ar
    24    18    19   ar
    25    19    20   ar
    26    20    21    1
    27    20    22   ar
    28    22    23   ar
    29    12    13    1
    30    13    14    1
    31    27    28   ar
    32    28    29   ar
    33    34    35    1
    34    35    36    1
    35    36    37    1
    36    36    38    1
    37    38    32    1
    38    29    24   ar
    39     6     1   ar
    40    14     9    1
    41    23    17   ar
    42    15    16    1
    43    38    39    1
@<TRIPOS>MOLECULE
*****
 39 43 0 0 0
SMALL
GASTEIGER

@<TRIPOS>ATOM
      1 C         141.7570  141.8537  167.3019 C.ar    1  UNL1        0.0222
      2 C         142.6222  142.4854  168.3519 C.ar    1  UNL1        0.0032
      3 C         143.1678  141.6533  169.4744 C.ar    1  UNL1        0.0207
      4 C         142.8482  140.1895  169.5469 C.ar    1  UNL1        0.0990
      5 N         141.9830  139.5579  168.4969 N.ar    1  UNL1       -0.2393
      6 C         141.4374  140.3900  167.3744 C.ar    1  UNL1        0.1346
      7 C         140.5721  139.7583  166.3244 C.2     1  UNL1        0.2668
      8 O         139.0848  139.7043  166.5111 O.2     1  UNL1       -0.2683
      9 N         141.1943  139.1807  165.0878 N.am    1  UNL1       -0.2747
     10 C         142.6816  139.2347  164.9011 C.3     1  UNL1        0.0955
     11 C         143.3038  138.6570  163.6645 C.3     1  UNL1        0.0410
     12 C         142.4385  138.0254  162.6145 C.3     1  UNL1        0.0724
     13 C         140.9512  137.9714  162.8012 C.3     1  UNL1        0.0410
     14 C         140.3291  138.5490  164.0379 C.3     1  UNL1        0.0955
     15 N         143.0607  137.4477  161.3779 N.pl3   1  UNL1       -0.3339
     16 H         143.3985  136.5230  161.3827 H       1  UNL1        0.1468
     17 C         143.1681  138.2790  160.1340 C.ar    1  UNL1        0.0447
     18 C         143.7894  139.6429  160.1947 C.ar    1  UNL1        0.0166
     19 C         143.8968  140.4741  158.9507 C.ar    1  UNL1        0.0309
     20 C         143.3831  139.9415  157.6460 C.ar    1  UNL1        0.1402
     21 F         143.4906  140.7727  156.4020 F       1  UNL1       -0.2042
     22 C         142.7619  138.5775  157.5853 C.ar    1  UNL1        0.0309
     23 C         142.6544  137.7463  158.8293 C.ar    1  UNL1        0.0166
     24 C         140.1203  144.3501  163.9346 C.ar    1  UNL1       -0.0061
     25 C         141.4779  143.7239  163.8127 C.ar    1  UNL1       -0.0029
     26 C         142.0235  142.8918  164.9352 C.ar    1  UNL1       -0.0002
     27 C         141.2114  142.6859  166.1795 C.ar    1  UNL1        0.0016
     28 C         139.8539  143.3120  166.3013 C.ar    1  UNL1       -0.0002
     29 C         139.3083  144.1442  165.1788 C.ar    1  UNL1       -0.0029
     30 C         139.5747  145.1822  162.8121 C.3     1  UNL1        0.0992
     31 C         138.4683  141.4613  159.3580 C.3     1  UNL1        0.0186
     32 C         139.0602  142.8018  159.6786 C.3     1  UNL1        0.0702
     33 C         139.0215  143.3218  161.0850 C.3     1  UNL1        0.0882
     34 N         139.6134  144.6623  161.4056 N.3     1  UNL1       -0.2666
     35 C         140.2439  145.4828  160.3197 C.3     1  UNL1        0.0882
     36 C         140.2825  144.9629  158.9133 C.3     1  UNL1        0.0702
     37 C         140.9131  145.7834  157.8274 C.3     1  UNL1        0.0186
     38 N         139.6907  143.6224  158.5927 N.3     1  UNL1       -0.2974
     39 H         140.4404  143.0572  158.1942 H       1  UNL1        0.1232
@<TRIPOS>BOND
     1    32    31    1
     2    32    33    1
     3    33    34    1
     4    34    30    1
     5    30    24    1
     6    24    25   ar
     7    25    26   ar
     8    26    27   ar
     9    27     1    1
    10     1     2   ar
    11     2     3   ar
    12     3     4   ar
    13     4     5   ar
    14     5     6   ar
    15     6     7    1
    16     7     8    2
    17     7     9   am
    18     9    10    1
    19    10    11    1
    20    11    12    1
    21    12    15    1
    22    15    17    1
    23    17    18   ar
    24    18    19   ar
    25    19    20   ar
    26    20    21    1
    27    20    22   ar
    28    22    23   ar
    29    12    13    1
    30    13    14    1
    31    27    28   ar
    32    28    29   ar
    33    34    35    1
    34    35    36    1
    35    36    37    1
    36    36    38    1
    37    38    32    1
    38    29    24   ar
    39     6     1   ar
    40    14     9    1
    41    23    17   ar
    42    15    16    1
    43    38    39    1
@<TRIPOS>MOLECULE
*****
 39 43 0 0 0
SMALL
GASTEIGER

@<TRIPOS>ATOM
      1 C         140.6815  140.0552  167.7736 C.ar    1  UNL1        0.0222
      2 C         141.0378  140.5028  169.1603 C.ar    1  UNL1        0.0032
      3 C         140.0014  140.4825  170.2445 C.ar    1  UNL1        0.0207
      4 C         138.6087  140.0145  169.9420 C.ar    1  UNL1        0.0990
      5 N         138.2524  139.5669  168.5555 N.ar    1  UNL1       -0.2393
      6 C         139.2888  139.5872  167.4713 C.ar    1  UNL1        0.1346
      7 C         138.9325  139.1395  166.0846 C.2     1  UNL1        0.2668
      8 O         138.8638  137.6759  165.7635 O.2     1  UNL1       -0.2683
      9 N         138.6448  140.1554  165.0192 N.am    1  UNL1       -0.2747
     10 C         138.7135  141.6191  165.3404 C.3     1  UNL1        0.0955
     11 C         138.4258  142.6350  164.2750 C.3     1  UNL1        0.0410
     12 C         138.0695  142.1873  162.8883 C.3     1  UNL1        0.0724
     13 C         138.0008  140.7237  162.5672 C.3     1  UNL1        0.0410
     14 C         138.2885  139.7077  163.6327 C.3     1  UNL1        0.0955
     15 N         137.7818  143.2032  161.8229 N.pl3   1  UNL1       -0.3339
     16 H         136.8687  143.5535  161.7105 H       1  UNL1        0.1468
     17 C         138.8855  143.6853  160.9288 C.ar    1  UNL1        0.0447
     18 C         139.1288  143.0147  159.6093 C.ar    1  UNL1        0.0166
     19 C         140.2324  143.4969  158.7152 C.ar    1  UNL1        0.0309
     20 C         141.0928  144.6497  159.1405 C.ar    1  UNL1        0.1402
     21 F         142.1964  145.1318  158.2463 F       1  UNL1       -0.2042
     22 C         140.8494  145.3203  160.4599 C.ar    1  UNL1        0.0309
     23 C         139.7458  144.8381  161.3541 C.ar    1  UNL1        0.0166
     24 C         143.7906  140.1161  164.5210 C.ar    1  UNL1       -0.0061
     25 C         143.3564  138.8107  165.1191 C.ar    1  UNL1       -0.0029
     26 C         142.3200  138.7904  166.2033 C.ar    1  UNL1       -0.0002
     27 C         141.7179  140.0755  166.6894 C.ar    1  UNL1        0.0016
     28 C         142.1521  141.3807  166.0914 C.ar    1  UNL1       -0.0002
     29 C         143.1885  141.4010  165.0072 C.ar    1  UNL1       -0.0029
     30 C         144.8270  140.1364  163.4368 C.3     1  UNL1        0.0992
     31 C         144.2800  142.6985  158.9495 C.3     1  UNL1        0.0186
     32 C         144.1325  141.4409  159.7536 C.3     1  UNL1        0.0702
     33 C         144.5535  141.4174  161.1931 C.3     1  UNL1        0.0882
     34 N         144.4060  140.1598  161.9972 N.3     1  UNL1       -0.2666
     35 C         143.8377  138.9256  161.3619 C.3     1  UNL1        0.0882
     36 C         143.4168  138.9490  159.9224 C.3     1  UNL1        0.0702
     37 C         142.8484  137.7148  159.2869 C.3     1  UNL1        0.0186
     38 N         143.5642  140.2067  159.1182 N.3     1  UNL1       -0.2974
     39 H         142.6332  140.4512  158.7808 H       1  UNL1        0.1232
@<TRIPOS>BOND
     1    32    31    1
     2    32    33    1
     3    33    34    1
     4    34    30    1
     5    30    24    1
     6    24    25   ar
     7    25    26   ar
     8    26    27   ar
     9    27     1    1
    10     1     2   ar
    11     2     3   ar
    12     3     4   ar
    13     4     5   ar
    14     5     6   ar
    15     6     7    1
    16     7     8    2
    17     7     9   am
    18     9    10    1
    19    10    11    1
    20    11    12    1
    21    12    15    1
    22    15    17    1
    23    17    18   ar
    24    18    19   ar
    25    19    20   ar
    26    20    21    1
    27    20    22   ar
    28    22    23   ar
    29    12    13    1
    30    13    14    1
    31    27    28   ar
    32    28    29   ar
    33    34    35    1
    34    35    36    1
    35    36    37    1
    36    36    38    1
    37    38    32    1
    38    29    24   ar
    39     6     1   ar
    40    14     9    1
    41    23    17   ar
    42    15    16    1
    43    38    39    1
@<TRIPOS>MOLECULE
*****
 39 43 0 0 0
SMALL
GASTEIGER

@<TRIPOS>ATOM
      1 C         140.0366  139.7519  167.4145 C.ar    1  UNL1        0.0222
      2 C         139.0832  139.9192  168.5604 C.ar    1  UNL1        0.0032
      3 C         139.6038  140.2576  169.9258 C.ar    1  UNL1        0.0207
      4 C         141.0778  140.4285  170.1454 C.ar    1  UNL1        0.0990
      5 N         142.0311  140.2611  168.9995 N.ar    1  UNL1       -0.2393
      6 C         141.5105  139.9228  167.6341 C.ar    1  UNL1        0.1346
      7 C         142.4640  139.7554  166.4881 C.2     1  UNL1        0.2668
      8 O         143.2439  138.4826  166.3413 O.2     1  UNL1       -0.2683
      9 N         142.6374  140.8608  165.4892 N.am    1  UNL1       -0.2747
     10 C         141.8574  142.1336  165.6361 C.3     1  UNL1        0.0955
     11 C         142.0308  143.2390  164.6371 C.3     1  UNL1        0.0410
     12 C         142.9843  143.0716  163.4912 C.3     1  UNL1        0.0724
     13 C         143.7642  141.7988  163.3443 C.3     1  UNL1        0.0410
     14 C         143.5908  140.6934  164.3434 C.3     1  UNL1        0.0955
     15 N         143.1577  144.1770  162.4922 N.pl3   1  UNL1       -0.3339
     16 H         143.8551  144.8584  162.6282 H       1  UNL1        0.1468
     17 C         142.2685  144.2443  161.2861 C.ar    1  UNL1        0.0447
     18 C         142.5475  143.3710  160.0989 C.ar    1  UNL1        0.0166
     19 C         141.6583  143.4382  158.8928 C.ar    1  UNL1        0.0309
     20 C         140.4900  144.3787  158.8738 C.ar    1  UNL1        0.1402
     21 F         139.6008  144.4460  157.6677 F       1  UNL1       -0.2042
     22 C         140.2109  145.2520  160.0610 C.ar    1  UNL1        0.0309
     23 C         141.1001  145.1848  161.2671 C.ar    1  UNL1        0.0166
     24 C         138.4748  138.7369  163.3180 C.ar    1  UNL1       -0.0061
     25 C         138.2219  140.0953  163.9018 C.ar    1  UNL1       -0.0029
     26 C         138.7425  140.4337  165.2672 C.ar    1  UNL1       -0.0002
     27 C         139.5160  139.4135  166.0490 C.ar    1  UNL1        0.0016
     28 C         139.7689  138.0551  165.4653 C.ar    1  UNL1       -0.0002
     29 C         139.2483  137.7168  164.0998 C.ar    1  UNL1       -0.0029
     30 C         137.9542  138.3985  161.9526 C.3     1  UNL1        0.0992
     31 C         138.0597  141.4584  157.7542 C.3     1  UNL1        0.0186
     32 C         138.7167  140.4358  158.6332 C.3     1  UNL1        0.0702
     33 C         138.0070  139.9284  159.8533 C.3     1  UNL1        0.0882
     34 N         138.6640  138.9059  160.7324 N.3     1  UNL1       -0.2666
     35 C         140.0308  138.3907  160.3912 C.3     1  UNL1        0.0882
     36 C         140.7406  138.8980  159.1710 C.3     1  UNL1        0.0702
     37 C         142.1074  138.3828  158.8298 C.3     1  UNL1        0.0186
     38 N         140.0835  139.9206  158.2920 N.3     1  UNL1       -0.2974
     39 H         140.0195  139.5105  157.3603 H       1  UNL1        0.1232
@<TRIPOS>BOND
     1    32    31    1
     2    32    33    1
     3    33    34    1
     4    34    30    1
     5    30    24    1
     6    24    25   ar
     7    25    26   ar
     8    26    27   ar
     9    27     1    1
    10     1     2   ar
    11     2     3   ar
    12     3     4   ar
    13     4     5   ar
    14     5     6   ar
    15     6     7    1
    16     7     8    2
    17     7     9   am
    18     9    10    1
    19    10    11    1
    20    11    12    1
    21    12    15    1
    22    15    17    1
    23    17    18   ar
    24    18    19   ar
    25    19    20   ar
    26    20    21    1
    27    20    22   ar
    28    22    23   ar
    29    12    13    1
    30    13    14    1
    31    27    28   ar
    32    28    29   ar
    33    34    35    1
    34    35    36    1
    35    36    37    1
    36    36    38    1
    37    38    32    1
    38    29    24   ar
    39     6     1   ar
    40    14     9    1
    41    23    17   ar
    42    15    16    1
    43    38    39    1
@<TRIPOS>MOLECULE
*****
 39 43 0 0 0
SMALL
GASTEIGER

@<TRIPOS>ATOM
      1 C         140.2566  140.7221  168.0286 C.ar    1  UNL1        0.0222
      2 C         139.3733  140.2889  169.1610 C.ar    1  UNL1        0.0032
      3 C         139.2352  141.1547  170.3780 C.ar    1  UNL1        0.0207
      4 C         139.9804  142.4538  170.4628 C.ar    1  UNL1        0.0990
      5 N         140.8637  142.8870  169.3305 N.ar    1  UNL1       -0.2393
      6 C         141.0018  142.0211  168.1134 C.ar    1  UNL1        0.1346
      7 C         141.8851  142.4544  166.9811 C.2     1  UNL1        0.2668
      8 O         143.3617  142.1972  167.0410 O.2     1  UNL1       -0.2683
      9 N         141.2918  143.1448  165.7889 N.am    1  UNL1       -0.2747
     10 C         139.8153  143.4020  165.7289 C.3     1  UNL1        0.0955
     11 C         139.2220  144.0924  164.5368 C.3     1  UNL1        0.0410
     12 C         140.1053  144.5256  163.4044 C.3     1  UNL1        0.0724
     13 C         141.5819  144.2684  163.4643 C.3     1  UNL1        0.0410
     14 C         142.1751  143.5780  164.6566 C.3     1  UNL1        0.0955
     15 N         139.5121  145.2160  162.2122 N.pl3   1  UNL1       -0.3339
     16 H         138.9115  145.9860  162.3377 H       1  UNL1        0.1468
     17 C         139.8337  144.7333  160.8290 C.ar    1  UNL1        0.0447
     18 C         140.3978  145.6839  159.8151 C.ar    1  UNL1        0.0166
     19 C         140.7195  145.2012  158.4318 C.ar    1  UNL1        0.0309
     20 C         140.4771  143.7678  158.0624 C.ar    1  UNL1        0.1402
     21 F         140.7987  143.2850  156.6791 F       1  UNL1       -0.2042
     22 C         139.9130  142.8171  159.0763 C.ar    1  UNL1        0.0309
     23 C         139.5913  143.2999  160.4595 C.ar    1  UNL1        0.0166
     24 C         140.6708  138.1246  164.3774 C.ar    1  UNL1       -0.0061
     25 C         141.8581  138.3726  165.2601 C.ar    1  UNL1       -0.0029
     26 C         141.7200  139.2384  166.4771 C.ar    1  UNL1       -0.0002
     27 C         140.3947  139.8563  166.8116 C.ar    1  UNL1        0.0016
     28 C         139.2075  139.6083  165.9289 C.ar    1  UNL1       -0.0002
     29 C         139.3456  138.7425  164.7118 C.ar    1  UNL1       -0.0029
     30 C         140.8089  137.2588  163.1603 C.3     1  UNL1        0.0992
     31 C         138.0354  139.7617  159.5488 C.3     1  UNL1        0.0186
     32 C         139.3170  139.1169  159.9867 C.3     1  UNL1        0.0702
     33 C         139.4222  138.5103  161.3545 C.3     1  UNL1        0.0882
     34 N         140.7038  137.8655  161.7925 N.3     1  UNL1       -0.2666
     35 C         141.8801  137.8273  160.8626 C.3     1  UNL1        0.0882
     36 C         141.7749  138.4340  159.4949 C.3     1  UNL1        0.0702
     37 C         142.9514  138.3958  158.5649 C.3     1  UNL1        0.0186
     38 N         140.4934  139.0788  159.0569 N.3     1  UNL1       -0.2974
     39 H         140.1887  138.5874  158.2166 H       1  UNL1        0.1232
@<TRIPOS>BOND
     1    32    31    1
     2    32    33    1
     3    33    34    1
     4    34    30    1
     5    30    24    1
     6    24    25   ar
     7    25    26   ar
     8    26    27   ar
     9    27     1    1
    10     1     2   ar
    11     2     3   ar
    12     3     4   ar
    13     4     5   ar
    14     5     6   ar
    15     6     7    1
    16     7     8    2
    17     7     9   am
    18     9    10    1
    19    10    11    1
    20    11    12    1
    21    12    15    1
    22    15    17    1
    23    17    18   ar
    24    18    19   ar
    25    19    20   ar
    26    20    21    1
    27    20    22   ar
    28    22    23   ar
    29    12    13    1
    30    13    14    1
    31    27    28   ar
    32    28    29   ar
    33    34    35    1
    34    35    36    1
    35    36    37    1
    36    36    38    1
    37    38    32    1
    38    29    24   ar
    39     6     1   ar
    40    14     9    1
    41    23    17   ar
    42    15    16    1
    43    38    39    1
@<TRIPOS>MOLECULE
*****
 39 43 0 0 0
SMALL
GASTEIGER

@<TRIPOS>ATOM
      1 C         144.1737  141.9660  157.5712 C.ar    1  UNL1        0.0222
      2 C         145.5149  142.4995  157.1628 C.ar    1  UNL1        0.0032
      3 C         146.4056  141.6863  156.2710 C.ar    1  UNL1        0.0207
      4 C         145.9551  140.3397  155.7875 C.ar    1  UNL1        0.0990
      5 N         144.6140  139.8063  156.1959 N.ar    1  UNL1       -0.2393
      6 C         143.7233  140.6194  157.0877 C.ar    1  UNL1        0.1346
      7 C         142.3821  140.0859  157.4961 C.2     1  UNL1        0.2668
      8 O         141.1966  140.2680  156.5952 O.2     1  UNL1       -0.2683
      9 N         142.2264  139.3705  158.8052 N.am    1  UNL1       -0.2747
     10 C         143.4119  139.1884  159.7060 C.3     1  UNL1        0.0955
     11 C         143.2563  138.4729  161.0151 C.3     1  UNL1        0.0410
     12 C         141.9151  137.9394  161.4234 C.3     1  UNL1        0.0724
     13 C         140.7296  138.1215  160.5226 C.3     1  UNL1        0.0410
     14 C         140.8853  138.8370  159.2134 C.3     1  UNL1        0.0955
     15 N         141.7595  137.2239  162.7325 N.pl3   1  UNL1       -0.3339
     16 H         142.1504  136.3285  162.8536 H       1  UNL1        0.1468
     17 C         141.0082  137.8727  163.8571 C.ar    1  UNL1        0.0447
     18 C         139.5233  137.6927  163.9693 C.ar    1  UNL1        0.0166
     19 C         138.7721  138.3415  165.0940 C.ar    1  UNL1        0.0309
     20 C         139.5057  139.1701  166.1064 C.ar    1  UNL1        0.1402
     21 F         138.7544  139.8189  167.2310 F       1  UNL1       -0.2042
     22 C         140.9906  139.3501  165.9942 C.ar    1  UNL1        0.0309
     23 C         141.7419  138.7013  164.8696 C.ar    1  UNL1        0.0166
     24 C         141.5015  144.4055  160.2466 C.ar    1  UNL1       -0.0061
     25 C         141.2812  144.4080  158.7629 C.ar    1  UNL1       -0.0029
     26 C         142.1719  143.5949  157.8710 C.ar    1  UNL1       -0.0002
     27 C         143.2829  142.7792  158.4630 C.ar    1  UNL1        0.0016
     28 C         143.5032  142.7767  159.9467 C.ar    1  UNL1       -0.0002
     29 C         142.6125  143.5899  160.8385 C.ar    1  UNL1       -0.0029
     30 C         140.6108  145.2187  161.1385 C.3     1  UNL1        0.0992
     31 C         137.4860  141.2783  162.4458 C.3     1  UNL1        0.0186
     32 C         138.1697  142.5660  162.7983 C.3     1  UNL1        0.0702
     33 C         139.0484  143.2485  161.7922 C.3     1  UNL1        0.0882
     34 N         139.7321  144.5362  162.1446 N.3     1  UNL1       -0.2666
     35 C         139.5373  145.1415  163.5032 C.3     1  UNL1        0.0882
     36 C         138.6586  144.4590  164.5092 C.3     1  UNL1        0.0702
     37 C         138.4637  145.0643  165.8679 C.3     1  UNL1        0.0186
     38 N         137.9749  143.1713  164.1568 N.3     1  UNL1       -0.2974
     39 H         136.9734  143.3298  164.2676 H       1  UNL1        0.1232
@<TRIPOS>BOND
     1    32    31    1
     2    32    33    1
     3    33    34    1
     4    34    30    1
     5    30    24    1
     6    24    25   ar
     7    25    26   ar
     8    26    27   ar
     9    27     1    1
    10     1     2   ar
    11     2     3   ar
    12     3     4   ar
    13     4     5   ar
    14     5     6   ar
    15     6     7    1
    16     7     8    2
    17     7     9   am
    18     9    10    1
    19    10    11    1
    20    11    12    1
    21    12    15    1
    22    15    17    1
    23    17    18   ar
    24    18    19   ar
    25    19    20   ar
    26    20    21    1
    27    20    22   ar
    28    22    23   ar
    29    12    13    1
    30    13    14    1
    31    27    28   ar
    32    28    29   ar
    33    34    35    1
    34    35    36    1
    35    36    37    1
    36    36    38    1
    37    38    32    1
    38    29    24   ar
    39     6     1   ar
    40    14     9    1
    41    23    17   ar
    42    15    16    1
    43    38    39    1
