@<TRIPOS>MOLECULE
*****
 38 43 0 0 0
SMALL
GASTEIGER

@<TRIPOS>ATOM
      1 C         139.7842  143.1393  164.2221 C.2     1  UNL1       -0.0155
      2 C         138.9448  144.3818  164.1849 C.2     1  UNL1       -0.0023
      3 C         138.8770  145.2039  162.9321 C.2     1  UNL1        0.0203
      4 C         139.6488  144.7835  161.7166 C.2     1  UNL1        0.1007
      5 N         139.7759  145.3881  160.3496 N.2     1  UNL1       -0.1482
      6 N         140.6940  144.5192  159.5421 N.2     1  UNL1       -0.1467
      7 C         141.1342  143.3777  160.4099 C.2     1  UNL1        0.1199
      8 C         140.4883  143.5410  161.7537 C.2     1  UNL1        0.0225
      9 C         140.5560  142.7189  163.0065 C.3     1  UNL1        0.0559
     10 C         139.9875  140.6728  167.9805 C.ar    1  UNL1        0.0667
     11 C         140.4547  142.0981  167.9927 C.ar    1  UNL1        0.0160
     12 C         140.3869  142.9203  166.7398 C.ar    1  UNL1        0.0032
     13 C         139.8520  142.3171  165.4749 C.ar    1  UNL1        0.0239
     14 C         139.3848  140.8918  165.4628 C.ar    1  UNL1        0.1411
     15 F         138.8498  140.2886  164.1978 F       1  UNL1       -0.2041
     16 C         139.4525  140.0696  166.7155 C.ar    1  UNL1        0.0454
     17 N         140.0552  139.8506  169.2332 N.pl3   1  UNL1       -0.2186
     18 H         139.3359  139.2117  169.4423 H       1  UNL1        0.1734
     19 C         142.3826  140.1531  171.1019 C.3     1  UNL1        0.1996
     20 S         141.2189  140.0018  170.1675 S.O2    1  UNL1        0.0558
     21 O         142.1247  139.3946  169.1376 O.2     1  UNL1       -0.1544
     22 O         140.3131  140.6090  171.1974 O.2     1  UNL1       -0.1544
     23 C         142.0582  142.2676  160.0049 C.ar    1  UNL1        0.1226
     24 C         142.4675  142.1185  158.5695 C.ar    1  UNL1        0.1198
     25 N         143.3915  141.0084  158.1645 N.ar    1  UNL1       -0.2358
     26 C         143.9062  140.0475  159.1948 C.ar    1  UNL1        0.1564
     27 C         143.4970  140.1966  160.6302 C.ar    1  UNL1        0.2447
     28 N         142.5730  141.3067  161.0352 N.ar    1  UNL1       -0.2072
     29 O         144.0118  139.2357  161.6606 O.3     1  UNL1       -0.4615
     30 C         143.0545  138.5431  162.5848 C.3     1  UNL1        0.1830
     31 C         141.9812  137.6567  162.0260 C.3     1  UNL1        0.1127
     32 N         141.0239  136.9642  162.9501 N.3     1  UNL1       -0.2945
     33 C         141.1400  137.1580  164.4331 C.3     1  UNL1        0.0688
     34 C         142.2134  138.0444  164.9918 C.3     1  UNL1        0.0206
     35 C         143.1706  138.7369  164.0676 C.3     1  UNL1        0.0396
     36 C         144.3431  139.6486  163.8566 C.3     1  UNL1        0.0037
     37 C         143.8574  139.3606  165.2463 C.3     1  UNL1        0.0037
     38 H         141.1181  135.9636  162.7757 H       1  UNL1        0.1234
@<TRIPOS>BOND
     1    19    20    1
     2    20    21    2
     3    20    22    2
     4    20    17    1
     5    17    10    1
     6    10    11   ar
     7    11    12   ar
     8    12    13   ar
     9    13     1    1
    10     1     2    2
    11     2     3    1
    12     3     4    2
    13     4     5    1
    14     5     6    2
    15     6     7    1
    16     7    23    1
    17    23    24   ar
    18    24    25   ar
    19    25    26   ar
    20    26    27   ar
    21    27    29    1
    22    30    29    1
    23    30    31    1
    24    31    32    1
    25    32    33    1
    26    33    34    1
    27    34    35    1
    28    35    36    1
    29    36    37    1
    30    27    28   ar
    31     7     8    2
    32     8     9    1
    33    13    14   ar
    34    14    15    1
    35    14    16   ar
    36    16    10   ar
    37     9     1    1
    38     8     4    1
    39    28    23   ar
    40    35    30    1
    41    37    35    1
    42    17    18    1
    43    32    38    1
@<TRIPOS>MOLECULE
*****
 38 43 0 0 0
SMALL
GASTEIGER

@<TRIPOS>ATOM
      1 C         142.2187  139.4011  163.3289 C.2     1  UNL1       -0.0155
      2 C         142.9827  138.1569  162.9853 C.2     1  UNL1       -0.0023
      3 C         143.6456  138.0298  161.6457 C.2     1  UNL1        0.0203
      4 C         143.5445  139.1470  160.6499 C.2     1  UNL1        0.1007
      5 N         144.0891  139.3060  159.2612 N.2     1  UNL1       -0.1482
      6 N         143.6616  140.6486  158.7468 N.2     1  UNL1       -0.1467
      7 C         142.8529  141.3193  159.8174 C.2     1  UNL1        0.1199
      8 C         142.7805  140.3912  160.9935 C.2     1  UNL1        0.0225
      9 C         142.1176  140.5183  162.3331 C.3     1  UNL1        0.0559
     10 C         140.2301  139.7825  167.3477 C.ar    1  UNL1        0.0667
     11 C         139.3976  139.7277  166.1011 C.ar    1  UNL1        0.0160
     12 C         140.0605  139.6005  164.7615 C.ar    1  UNL1        0.0032
     13 C         141.5558  139.5283  164.6685 C.ar    1  UNL1        0.0239
     14 C         142.3883  139.5831  165.9151 C.ar    1  UNL1        0.1411
     15 F         143.8837  139.5109  165.8221 F       1  UNL1       -0.2041
     16 C         141.7255  139.7103  167.2547 C.ar    1  UNL1        0.0454
     17 N         139.5672  139.9097  168.6872 N.pl3   1  UNL1       -0.2186
     18 H         138.6834  139.5037  168.8396 H       1  UNL1        0.1734
     19 C         140.9349  141.4012  170.9020 C.3     1  UNL1        0.1996
     20 S         140.2510  140.6554  169.7946 S.O2    1  UNL1        0.0558
     21 O         140.5169  139.3601  170.5027 O.2     1  UNL1       -0.1544
     22 O         139.9852  141.9507  169.0864 O.2     1  UNL1       -0.1544
     23 C         142.2265  142.6793  159.7276 C.ar    1  UNL1        0.1226
     24 C         142.7540  143.6847  158.7474 C.ar    1  UNL1        0.1198
     25 N         142.1276  145.0447  158.6576 N.ar    1  UNL1       -0.2358
     26 C         140.9738  145.3993  159.5480 C.ar    1  UNL1        0.1564
     27 C         140.4463  144.3938  160.5282 C.ar    1  UNL1        0.2447
     28 N         141.0727  143.0339  160.6180 N.ar    1  UNL1       -0.2072
     29 O         139.2923  144.7484  161.4186 O.3     1  UNL1       -0.4615
     30 C         138.5747  143.6736  162.1800 C.3     1  UNL1        0.1830
     31 C         137.9557  142.5207  161.4466 C.3     1  UNL1        0.1127
     32 N         137.2380  141.4459  162.2080 N.3     1  UNL1       -0.2945
     33 C         137.1393  141.5239  163.7028 C.3     1  UNL1        0.0688
     34 C         137.7583  142.6767  164.4361 C.3     1  UNL1        0.0206
     35 C         138.4760  143.7515  163.6747 C.3     1  UNL1        0.0396
     36 C         139.2478  145.0377  163.6585 C.3     1  UNL1        0.0037
     37 C         138.7764  144.4622  164.9611 C.3     1  UNL1        0.0037
     38 H         137.7070  140.5669  161.9893 H       1  UNL1        0.1234
@<TRIPOS>BOND
     1    19    20    1
     2    20    21    2
     3    20    22    2
     4    20    17    1
     5    17    10    1
     6    10    11   ar
     7    11    12   ar
     8    12    13   ar
     9    13     1    1
    10     1     2    2
    11     2     3    1
    12     3     4    2
    13     4     5    1
    14     5     6    2
    15     6     7    1
    16     7    23    1
    17    23    24   ar
    18    24    25   ar
    19    25    26   ar
    20    26    27   ar
    21    27    29    1
    22    30    29    1
    23    30    31    1
    24    31    32    1
    25    32    33    1
    26    33    34    1
    27    34    35    1
    28    35    36    1
    29    36    37    1
    30    27    28   ar
    31     7     8    2
    32     8     9    1
    33    13    14   ar
    34    14    15    1
    35    14    16   ar
    36    16    10   ar
    37     9     1    1
    38     8     4    1
    39    28    23   ar
    40    35    30    1
    41    37    35    1
    42    17    18    1
    43    32    38    1
@<TRIPOS>MOLECULE
*****
 38 43 0 0 0
SMALL
GASTEIGER

@<TRIPOS>ATOM
      1 C         139.9846  139.1727  164.6935 C.2     1  UNL1       -0.0155
      2 C         139.3061  137.8500  164.4939 C.2     1  UNL1       -0.0023
      3 C         138.6525  137.5329  163.1816 C.2     1  UNL1        0.0203
      4 C         138.6775  138.5385  162.0689 C.2     1  UNL1        0.1007
      5 N         138.1227  138.5077  160.6755 N.2     1  UNL1       -0.1482
      6 N         138.4584  139.8115  160.0141 N.2     1  UNL1       -0.1467
      7 C         139.2207  140.6479  160.9986 C.2     1  UNL1        0.1199
      8 C         139.3561  139.8612  162.2685 C.2     1  UNL1        0.0225
      9 C         140.0096  140.1783  163.5808 C.3     1  UNL1        0.0559
     10 C         141.9454  140.1242  168.6306 C.ar    1  UNL1        0.0667
     11 C         140.5123  140.5000  168.3963 C.ar    1  UNL1        0.0160
     12 C         139.8587  140.1828  167.0839 C.ar    1  UNL1        0.0032
     13 C         140.6382  139.4899  166.0059 C.ar    1  UNL1        0.0239
     14 C         142.0714  139.1141  166.2402 C.ar    1  UNL1        0.1411
     15 F         142.8509  138.4211  165.1621 F       1  UNL1       -0.2041
     16 C         142.7250  139.4313  167.5525 C.ar    1  UNL1        0.0454
     17 N         142.5990  140.4414  169.9429 N.pl3   1  UNL1       -0.2186
     18 H         142.9444  139.7140  170.5093 H       1  UNL1        0.1734
     19 C         142.8537  143.2923  170.8415 C.3     1  UNL1        0.1996
     20 S         142.7263  141.8668  170.3922 S.O2    1  UNL1        0.0558
     21 O         141.8233  141.5808  171.5553 O.2     1  UNL1       -0.1544
     22 O         143.6293  142.1527  169.2291 O.2     1  UNL1       -0.1544
     23 C         139.7539  142.0288  160.7558 C.ar    1  UNL1        0.1226
     24 C         139.1501  142.8885  159.6851 C.ar    1  UNL1        0.1198
     25 N         139.6833  144.2693  159.4423 N.ar    1  UNL1       -0.2358
     26 C         140.8203  144.7905  160.2702 C.ar    1  UNL1        0.1564
     27 C         141.4242  143.9308  161.3409 C.ar    1  UNL1        0.2447
     28 N         140.8909  142.5500  161.5837 N.ar    1  UNL1       -0.2072
     29 O         142.5613  144.4520  162.1688 O.3     1  UNL1       -0.4615
     30 C         143.6235  143.5135  162.6596 C.3     1  UNL1        0.1830
     31 C         144.7079  143.0560  161.7297 C.3     1  UNL1        0.1127
     32 N         145.7702  142.1175  162.2204 N.3     1  UNL1       -0.2945
     33 C         145.7480  141.6364  163.6411 C.3     1  UNL1        0.0688
     34 C         144.6636  142.0940  164.5710 C.3     1  UNL1        0.0206
     35 C         143.6014  143.0325  164.0802 C.3     1  UNL1        0.0396
     36 C         142.3619  143.8386  164.3337 C.3     1  UNL1        0.0037
     37 C         142.9625  143.0191  165.4372 C.3     1  UNL1        0.0037
     38 H         146.6649  142.5875  162.0826 H       1  UNL1        0.1234
@<TRIPOS>BOND
     1    19    20    1
     2    20    21    2
     3    20    22    2
     4    20    17    1
     5    17    10    1
     6    10    11   ar
     7    11    12   ar
     8    12    13   ar
     9    13     1    1
    10     1     2    2
    11     2     3    1
    12     3     4    2
    13     4     5    1
    14     5     6    2
    15     6     7    1
    16     7    23    1
    17    23    24   ar
    18    24    25   ar
    19    25    26   ar
    20    26    27   ar
    21    27    29    1
    22    30    29    1
    23    30    31    1
    24    31    32    1
    25    32    33    1
    26    33    34    1
    27    34    35    1
    28    35    36    1
    29    36    37    1
    30    27    28   ar
    31     7     8    2
    32     8     9    1
    33    13    14   ar
    34    14    15    1
    35    14    16   ar
    36    16    10   ar
    37     9     1    1
    38     8     4    1
    39    28    23   ar
    40    35    30    1
    41    37    35    1
    42    17    18    1
    43    32    38    1
@<TRIPOS>MOLECULE
*****
 38 43 0 0 0
SMALL
GASTEIGER

@<TRIPOS>ATOM
      1 C         139.7395  142.8860  164.0977 C.2     1  UNL1       -0.0155
      2 C         139.3375  144.3310  164.0792 C.2     1  UNL1       -0.0023
      3 C         139.2915  145.0800  162.7804 C.2     1  UNL1        0.0203
      4 C         139.6474  144.3841  161.5002 C.2     1  UNL1        0.1007
      5 N         139.6933  144.8598  160.0783 N.2     1  UNL1       -0.1482
      6 N         140.1237  143.7088  159.2181 N.2     1  UNL1       -0.1467
      7 C         140.3437  142.5218  160.1083 C.2     1  UNL1        0.1199
      8 C         140.0494  142.9391  161.5187 C.2     1  UNL1        0.0225
      9 C         140.0954  142.1901  162.8175 C.3     1  UNL1        0.0559
     10 C         139.8777  140.6387  167.9940 C.ar    1  UNL1        0.0667
     11 C         140.5124  141.9936  167.8867 C.ar    1  UNL1        0.0160
     12 C         140.4664  142.7427  166.5879 C.ar    1  UNL1        0.0032
     13 C         139.7856  142.1369  165.3965 C.ar    1  UNL1        0.0239
     14 C         139.1509  140.7821  165.5037 C.ar    1  UNL1        0.1411
     15 F         138.4701  140.1763  164.3122 F       1  UNL1       -0.2041
     16 C         139.1969  140.0330  166.8024 C.ar    1  UNL1        0.0454
     17 N         139.9238  139.8896  169.2927 N.pl3   1  UNL1       -0.2186
     18 H         139.2602  139.1867  169.4793 H       1  UNL1        0.1734
     19 C         142.0379  140.5334  171.3215 C.3     1  UNL1        0.1996
     20 S         140.9808  140.2115  170.3070 S.O2    1  UNL1        0.0558
     21 O         141.9663  139.3759  169.5452 O.2     1  UNL1       -0.1544
     22 O         139.9953  141.0471  171.0689 O.2     1  UNL1       -0.1544
     23 C         140.7813  141.1570  159.6659 C.ar    1  UNL1        0.1226
     24 C         140.8146  140.8168  158.2053 C.ar    1  UNL1        0.1198
     25 N         141.2522  139.4520  157.7629 N.ar    1  UNL1       -0.2358
     26 C         141.6566  138.4273  158.7809 C.ar    1  UNL1        0.1564
     27 C         141.6234  138.7674  160.2414 C.ar    1  UNL1        0.2447
     28 N         141.1858  140.1322  160.6839 N.ar    1  UNL1       -0.2072
     29 O         142.0278  137.7427  161.2596 O.3     1  UNL1       -0.4615
     30 C         142.7053  138.1717  162.5272 C.3     1  UNL1        0.1830
     31 C         144.0566  138.8206  162.4729 C.3     1  UNL1        0.1127
     32 N         144.7341  139.2496  163.7405 N.3     1  UNL1       -0.2945
     33 C         144.0603  139.0297  165.0626 C.3     1  UNL1        0.0688
     34 C         142.7090  138.3808  165.1169 C.3     1  UNL1        0.0206
     35 C         142.0315  137.9518  163.8492 C.3     1  UNL1        0.0396
     36 C         140.8601  137.3295  163.1486 C.3     1  UNL1        0.0037
     37 C         140.8623  137.4502  164.6438 C.3     1  UNL1        0.0037
     38 H         144.9030  140.2522  163.6593 H       1  UNL1        0.1234
@<TRIPOS>BOND
     1    19    20    1
     2    20    21    2
     3    20    22    2
     4    20    17    1
     5    17    10    1
     6    10    11   ar
     7    11    12   ar
     8    12    13   ar
     9    13     1    1
    10     1     2    2
    11     2     3    1
    12     3     4    2
    13     4     5    1
    14     5     6    2
    15     6     7    1
    16     7    23    1
    17    23    24   ar
    18    24    25   ar
    19    25    26   ar
    20    26    27   ar
    21    27    29    1
    22    30    29    1
    23    30    31    1
    24    31    32    1
    25    32    33    1
    26    33    34    1
    27    34    35    1
    28    35    36    1
    29    36    37    1
    30    27    28   ar
    31     7     8    2
    32     8     9    1
    33    13    14   ar
    34    14    15    1
    35    14    16   ar
    36    16    10   ar
    37     9     1    1
    38     8     4    1
    39    28    23   ar
    40    35    30    1
    41    37    35    1
    42    17    18    1
    43    32    38    1
@<TRIPOS>MOLECULE
*****
 38 43 0 0 0
SMALL
GASTEIGER

@<TRIPOS>ATOM
      1 C         141.1969  143.6872  163.5296 C.2     1  UNL1       -0.0155
      2 C         140.7061  145.0975  163.3877 C.2     1  UNL1       -0.0023
      3 C         140.2333  145.5965  162.0545 C.2     1  UNL1        0.0203
      4 C         140.2514  144.6852  160.8632 C.2     1  UNL1        0.1007
      5 N         139.8500  144.8947  159.4331 N.2     1  UNL1       -0.1482
      6 N         140.0928  143.6138  158.6912 N.2     1  UNL1       -0.1467
      7 C         140.6442  142.6128  159.6627 C.2     1  UNL1        0.1199
      8 C         140.7423  143.2749  161.0051 C.2     1  UNL1        0.0225
      9 C         141.2150  142.7760  162.3383 C.3     1  UNL1        0.0559
     10 C         142.6154  142.1901  167.5293 C.ar    1  UNL1        0.0667
     11 C         141.1473  142.3475  167.2650 C.ar    1  UNL1        0.0160
     12 C         140.6745  142.8466  165.9318 C.ar    1  UNL1        0.0032
     13 C         141.6698  143.1882  164.8629 C.ar    1  UNL1        0.0239
     14 C         143.1379  143.0308  165.1271 C.ar    1  UNL1        0.1411
     15 F         144.1332  143.3724  164.0581 F       1  UNL1       -0.2041
     16 C         143.6107  142.5318  166.4603 C.ar    1  UNL1        0.0454
     17 N         143.0882  141.6911  168.8624 N.pl3   1  UNL1       -0.2186
     18 H         143.8425  142.1338  169.3145 H       1  UNL1        0.1734
     19 C         141.7355  139.3439  170.1512 C.3     1  UNL1        0.1996
     20 S         142.4119  140.5176  169.5068 S.O2    1  UNL1        0.0558
     21 O         141.8117  141.4287  170.5362 O.2     1  UNL1       -0.1544
     22 O         143.0121  139.6064  168.4775 O.2     1  UNL1       -0.1544
     23 C         141.0300  141.1980  159.3473 C.ar    1  UNL1        0.1226
     24 C         141.1804  140.7621  157.9200 C.ar    1  UNL1        0.1198
     25 N         141.5661  139.3472  157.6045 N.ar    1  UNL1       -0.2358
     26 C         141.8014  138.3683  158.7164 C.ar    1  UNL1        0.1564
     27 C         141.6509  138.8042  160.1437 C.ar    1  UNL1        0.2447
     28 N         141.2652  140.2190  160.4592 N.ar    1  UNL1       -0.2072
     29 O         141.8862  137.8252  161.2557 O.3     1  UNL1       -0.4615
     30 C         142.6473  138.2468  162.4776 C.3     1  UNL1        0.1830
     31 C         143.9861  138.9084  162.3360 C.3     1  UNL1        0.1127
     32 N         144.7473  139.3300  163.5579 N.3     1  UNL1       -0.2945
     33 C         144.1696  139.0900  164.9213 C.3     1  UNL1        0.0688
     34 C         142.8309  138.4285  165.0628 C.3     1  UNL1        0.0206
     35 C         142.0697  138.0069  163.8409 C.3     1  UNL1        0.0396
     36 C         140.8573  137.3815  163.2171 C.3     1  UNL1        0.0037
     37 C         140.9633  137.4864  164.7097 C.3     1  UNL1        0.0037
     38 H         144.9019  140.3349  163.4763 H       1  UNL1        0.1234
@<TRIPOS>BOND
     1    19    20    1
     2    20    21    2
     3    20    22    2
     4    20    17    1
     5    17    10    1
     6    10    11   ar
     7    11    12   ar
     8    12    13   ar
     9    13     1    1
    10     1     2    2
    11     2     3    1
    12     3     4    2
    13     4     5    1
    14     5     6    2
    15     6     7    1
    16     7    23    1
    17    23    24   ar
    18    24    25   ar
    19    25    26   ar
    20    26    27   ar
    21    27    29    1
    22    30    29    1
    23    30    31    1
    24    31    32    1
    25    32    33    1
    26    33    34    1
    27    34    35    1
    28    35    36    1
    29    36    37    1
    30    27    28   ar
    31     7     8    2
    32     8     9    1
    33    13    14   ar
    34    14    15    1
    35    14    16   ar
    36    16    10   ar
    37     9     1    1
    38     8     4    1
    39    28    23   ar
    40    35    30    1
    41    37    35    1
    42    17    18    1
    43    32    38    1
@<TRIPOS>MOLECULE
*****
 38 43 0 0 0
SMALL
GASTEIGER

@<TRIPOS>ATOM
      1 C         143.6472  141.7434  164.4467 C.2     1  UNL1       -0.0155
      2 C         145.1305  141.7513  164.2239 C.2     1  UNL1       -0.0023
      3 C         145.6811  141.9879  162.8489 C.2     1  UNL1        0.0203
      4 C         144.7484  142.2166  161.6966 C.2     1  UNL1        0.1007
      5 N         144.9970  142.4745  160.2399 N.2     1  UNL1       -0.1482
      6 N         143.6673  142.6260  159.5625 N.2     1  UNL1       -0.1467
      7 C         142.5969  142.4617  160.6004 C.2     1  UNL1        0.1199
      8 C         143.2650  142.2087  161.9194 C.2     1  UNL1        0.0225
      9 C         142.7144  141.9721  163.2944 C.3     1  UNL1        0.0559
     10 C         141.9951  141.0336  168.5719 C.ar    1  UNL1        0.0667
     11 C         142.8147  142.2585  168.2928 C.ar    1  UNL1        0.0160
     12 C         143.3653  142.4951  166.9176 C.ar    1  UNL1        0.0032
     13 C         143.0965  141.5068  165.8218 C.ar    1  UNL1        0.0239
     14 C         142.2770  140.2819  166.1010 C.ar    1  UNL1        0.1411
     15 F         142.0081  139.2935  165.0050 F       1  UNL1       -0.2041
     16 C         141.7263  140.0452  167.4760 C.ar    1  UNL1        0.0454
     17 N         141.4445  140.7970  169.9470 N.pl3   1  UNL1       -0.2186
     18 H         142.0508  140.7699  170.7221 H       1  UNL1        0.1734
     19 C         138.4954  140.4061  170.3349 C.3     1  UNL1        0.1996
     20 S         139.9700  140.6015  170.1409 S.O2    1  UNL1        0.0558
     21 O         139.7202  141.9953  169.6461 O.2     1  UNL1       -0.1544
     22 O         140.2198  139.2078  170.6358 O.2     1  UNL1       -0.1544
     23 C         141.1180  142.5372  160.3614 C.ar    1  UNL1        0.1226
     24 C         140.5881  143.2692  159.1642 C.ar    1  UNL1        0.1198
     25 N         139.1092  143.3447  158.9252 N.ar    1  UNL1       -0.2358
     26 C         138.1601  142.6881  159.8834 C.ar    1  UNL1        0.1564
     27 C         138.6900  141.9561  161.0806 C.ar    1  UNL1        0.2447
     28 N         140.1689  141.8806  161.3196 N.ar    1  UNL1       -0.2072
     29 O         137.7409  141.2994  162.0388 O.3     1  UNL1       -0.4615
     30 C         138.1293  140.0218  162.7221 C.3     1  UNL1        0.1830
     31 C         138.2291  138.7498  161.9333 C.3     1  UNL1        0.1127
     32 N         138.6174  137.4722  162.6165 N.3     1  UNL1       -0.2945
     33 C         138.9060  137.4664  164.0885 C.3     1  UNL1        0.0688
     34 C         138.8062  138.7384  164.8772 C.3     1  UNL1        0.0206
     35 C         138.4178  140.0161  164.1940 C.3     1  UNL1        0.0396
     36 C         138.1359  141.4882  164.2549 C.3     1  UNL1        0.0037
     37 C         138.5268  140.7472  165.4992 C.3     1  UNL1        0.0037
     38 H         139.4588  137.1329  162.1502 H       1  UNL1        0.1234
@<TRIPOS>BOND
     1    19    20    1
     2    20    21    2
     3    20    22    2
     4    20    17    1
     5    17    10    1
     6    10    11   ar
     7    11    12   ar
     8    12    13   ar
     9    13     1    1
    10     1     2    2
    11     2     3    1
    12     3     4    2
    13     4     5    1
    14     5     6    2
    15     6     7    1
    16     7    23    1
    17    23    24   ar
    18    24    25   ar
    19    25    26   ar
    20    26    27   ar
    21    27    29    1
    22    30    29    1
    23    30    31    1
    24    31    32    1
    25    32    33    1
    26    33    34    1
    27    34    35    1
    28    35    36    1
    29    36    37    1
    30    27    28   ar
    31     7     8    2
    32     8     9    1
    33    13    14   ar
    34    14    15    1
    35    14    16   ar
    36    16    10   ar
    37     9     1    1
    38     8     4    1
    39    28    23   ar
    40    35    30    1
    41    37    35    1
    42    17    18    1
    43    32    38    1
@<TRIPOS>MOLECULE
*****
 38 43 0 0 0
SMALL
GASTEIGER

@<TRIPOS>ATOM
      1 C         140.9940  143.6881  163.8662 C.2     1  UNL1       -0.0155
      2 C         140.9417  145.1701  163.6408 C.2     1  UNL1       -0.0023
      3 C         140.5195  145.7113  162.3071 C.2     1  UNL1        0.0203
      4 C         140.1497  144.7706  161.1989 C.2     1  UNL1        0.1007
      5 N         139.6986  145.0092  159.7883 N.2     1  UNL1       -0.1482
      6 N         139.4721  143.6747  159.1420 N.2     1  UNL1       -0.1467
      7 C         139.7832  142.6113  160.1531 C.2     1  UNL1        0.1199
      8 C         140.2020  143.2886  161.4243 C.2     1  UNL1        0.0225
      9 C         140.6241  142.7473  162.7580 C.3     1  UNL1        0.0559
     10 C         142.2606  142.0641  167.8674 C.ar    1  UNL1        0.0667
     11 C         140.8379  142.4842  167.6447 C.ar    1  UNL1        0.0160
     12 C         140.4157  143.0255  166.3110 C.ar    1  UNL1        0.0032
     13 C         141.4162  143.1468  165.2000 C.ar    1  UNL1        0.0239
     14 C         142.8389  142.7267  165.4227 C.ar    1  UNL1        0.1411
     15 F         143.8394  142.8480  164.3116 F       1  UNL1       -0.2041
     16 C         143.2611  142.1854  166.7563 C.ar    1  UNL1        0.0454
     17 N         142.6828  141.5228  169.2010 N.pl3   1  UNL1       -0.2186
     18 H         143.6395  141.4322  169.4151 H       1  UNL1        0.1734
     19 C         140.6120  140.7162  171.2162 C.3     1  UNL1        0.1996
     20 S         141.6474  141.1196  170.2086 S.O2    1  UNL1        0.0558
     21 O         141.7993  142.4446  170.8950 O.2     1  UNL1       -0.1544
     22 O         141.4956  139.7945  169.5222 O.2     1  UNL1       -0.1544
     23 C         139.6917  141.1305  159.9319 C.ar    1  UNL1        0.1226
     24 C         139.2756  140.5964  158.5934 C.ar    1  UNL1        0.1198
     25 N         139.1840  139.1157  158.3722 N.ar    1  UNL1       -0.2358
     26 C         139.5085  138.1689  159.4894 C.ar    1  UNL1        0.1564
     27 C         139.9246  138.7030  160.8280 C.ar    1  UNL1        0.2447
     28 N         140.0162  140.1838  161.0492 N.ar    1  UNL1       -0.2072
     29 O         140.2492  137.7562  161.9454 O.3     1  UNL1       -0.4615
     30 C         140.1261  138.2076  163.3705 C.3     1  UNL1        0.1830
     31 C         138.7700  138.3773  163.9889 C.3     1  UNL1        0.1127
     32 N         138.6469  138.8287  165.4141 N.3     1  UNL1       -0.2945
     33 C         139.8797  139.1105  166.2208 C.3     1  UNL1        0.0688
     34 C         141.2357  138.9409  165.6023 C.3     1  UNL1        0.0206
     35 C         141.3588  138.4895  164.1772 C.3     1  UNL1        0.0396
     36 C         142.2129  138.1309  162.9972 C.3     1  UNL1        0.0037
     37 C         142.8535  138.5542  164.2858 C.3     1  UNL1        0.0037
     38 H         138.1305  138.1019  165.9096 H       1  UNL1        0.1234
@<TRIPOS>BOND
     1    19    20    1
     2    20    21    2
     3    20    22    2
     4    20    17    1
     5    17    10    1
     6    10    11   ar
     7    11    12   ar
     8    12    13   ar
     9    13     1    1
    10     1     2    2
    11     2     3    1
    12     3     4    2
    13     4     5    1
    14     5     6    2
    15     6     7    1
    16     7    23    1
    17    23    24   ar
    18    24    25   ar
    19    25    26   ar
    20    26    27   ar
    21    27    29    1
    22    30    29    1
    23    30    31    1
    24    31    32    1
    25    32    33    1
    26    33    34    1
    27    34    35    1
    28    35    36    1
    29    36    37    1
    30    27    28   ar
    31     7     8    2
    32     8     9    1
    33    13    14   ar
    34    14    15    1
    35    14    16   ar
    36    16    10   ar
    37     9     1    1
    38     8     4    1
    39    28    23   ar
    40    35    30    1
    41    37    35    1
    42    17    18    1
    43    32    38    1
@<TRIPOS>MOLECULE
*****
 38 43 0 0 0
SMALL
GASTEIGER

@<TRIPOS>ATOM
      1 C         143.6678  141.1791  163.4486 C.2     1  UNL1       -0.0155
      2 C         144.9912  141.8161  163.1440 C.2     1  UNL1       -0.0023
      3 C         145.2637  142.3603  161.7731 C.2     1  UNL1        0.0203
      4 C         144.2128  142.2675  160.7067 C.2     1  UNL1        0.1007
      5 N         144.1944  142.7123  159.2743 N.2     1  UNL1       -0.1482
      6 N         142.8596  142.3502  158.6936 N.2     1  UNL1       -0.1467
      7 C         142.0531  141.6817  159.7672 C.2     1  UNL1        0.1199
      8 C         142.8894  141.6306  161.0114 C.2     1  UNL1        0.0225
      9 C         142.6169  141.0864  162.3823 C.3     1  UNL1        0.0559
     10 C         142.8501  139.5465  167.5616 C.ar    1  UNL1        0.0667
     11 C         143.3189  138.6302  166.4705 C.ar    1  UNL1        0.0160
     12 C         143.5914  139.1744  165.0995 C.ar    1  UNL1        0.0032
     13 C         143.3952  140.6349  164.8197 C.ar    1  UNL1        0.0239
     14 C         142.9264  141.5513  165.9108 C.ar    1  UNL1        0.1411
     15 F         142.7302  143.0118  165.6309 F       1  UNL1       -0.2041
     16 C         142.6539  141.0071  167.2817 C.ar    1  UNL1        0.0454
     17 N         142.5775  139.0024  168.9326 N.pl3   1  UNL1       -0.2186
     18 H         142.7482  138.0527  169.1281 H       1  UNL1        0.1734
     19 C         141.5124  140.8080  171.0786 C.3     1  UNL1        0.1996
     20 S         142.0449  139.9051  170.0055 S.O2    1  UNL1        0.0558
     21 O         140.6430  139.5860  169.5782 O.2     1  UNL1       -0.1544
     22 O         143.4469  140.2243  170.4328 O.2     1  UNL1       -0.1544
     23 C         140.6555  141.1565  159.6222 C.ar    1  UNL1        0.1226
     24 C         140.1182  140.8197  158.2628 C.ar    1  UNL1        0.1198
     25 N         138.7207  140.2945  158.1178 N.ar    1  UNL1       -0.2358
     26 C         137.8604  140.1060  159.3320 C.ar    1  UNL1        0.1564
     27 C         138.3978  140.4428  160.6913 C.ar    1  UNL1        0.2447
     28 N         139.7953  140.9680  160.8364 N.ar    1  UNL1       -0.2072
     29 O         137.5375  140.2544  161.9057 O.3     1  UNL1       -0.4615
     30 C         138.1716  140.0402  163.2481 C.3     1  UNL1        0.1830
     31 C         138.7874  138.7141  163.5837 C.3     1  UNL1        0.1127
     32 N         139.4214  138.5000  164.9261 N.3     1  UNL1       -0.2945
     33 C         139.4398  139.6117  165.9330 C.3     1  UNL1        0.0688
     34 C         138.8240  140.9377  165.5973 C.3     1  UNL1        0.0206
     35 C         138.1899  141.1519  164.2549 C.3     1  UNL1        0.0396
     36 C         137.4683  142.0411  163.2861 C.3     1  UNL1        0.0037
     37 C         137.8449  142.5593  164.6424 C.3     1  UNL1        0.0037
     38 H         140.3932  138.2417  164.7548 H       1  UNL1        0.1234
@<TRIPOS>BOND
     1    19    20    1
     2    20    21    2
     3    20    22    2
     4    20    17    1
     5    17    10    1
     6    10    11   ar
     7    11    12   ar
     8    12    13   ar
     9    13     1    1
    10     1     2    2
    11     2     3    1
    12     3     4    2
    13     4     5    1
    14     5     6    2
    15     6     7    1
    16     7    23    1
    17    23    24   ar
    18    24    25   ar
    19    25    26   ar
    20    26    27   ar
    21    27    29    1
    22    30    29    1
    23    30    31    1
    24    31    32    1
    25    32    33    1
    26    33    34    1
    27    34    35    1
    28    35    36    1
    29    36    37    1
    30    27    28   ar
    31     7     8    2
    32     8     9    1
    33    13    14   ar
    34    14    15    1
    35    14    16   ar
    36    16    10   ar
    37     9     1    1
    38     8     4    1
    39    28    23   ar
    40    35    30    1
    41    37    35    1
    42    17    18    1
    43    32    38    1
@<TRIPOS>MOLECULE
*****
 38 43 0 0 0
SMALL
GASTEIGER

@<TRIPOS>ATOM
      1 C         140.4043  143.2542  163.8777 C.2     1  UNL1       -0.0155
      2 C         140.4783  144.7459  164.0163 C.2     1  UNL1       -0.0023
      3 C         140.3320  145.6197  162.8059 C.2     1  UNL1        0.0203
      4 C         140.1116  145.0018  161.4570 C.2     1  UNL1        0.1007
      5 N         139.9332  145.6033  160.0945 N.2     1  UNL1       -0.1482
      6 N         139.7488  144.4833  159.1139 N.2     1  UNL1       -0.1467
      7 C         139.8134  143.1896  159.8703 C.2     1  UNL1        0.1199
      8 C         140.0376  143.5101  161.3185 C.2     1  UNL1        0.0225
      9 C         140.1839  142.6363  162.5288 C.3     1  UNL1        0.0559
     10 C         140.8434  140.6327  167.5089 C.ar    1  UNL1        0.0667
     11 C         139.5502  140.6511  166.7491 C.ar    1  UNL1        0.0160
     12 C         139.4038  141.5250  165.5387 C.ar    1  UNL1        0.0032
     13 C         140.5506  142.3803  165.0881 C.ar    1  UNL1        0.0239
     14 C         141.8438  142.3619  165.8479 C.ar    1  UNL1        0.1411
     15 F         142.9907  143.2174  165.3973 F       1  UNL1       -0.2041
     16 C         141.9902  141.4881  167.0583 C.ar    1  UNL1        0.0454
     17 N         140.9897  139.7589  168.7192 N.pl3   1  UNL1       -0.2186
     18 H         140.3728  139.0045  168.8593 H       1  UNL1        0.1734
     19 C         143.1625  140.3099  170.7131 C.3     1  UNL1        0.1996
     20 S         142.0761  140.0343  169.7162 S.O2    1  UNL1        0.0558
     21 O         142.9131  138.9508  169.1035 O.2     1  UNL1       -0.1544
     22 O         141.2391  141.1179  170.3288 O.2     1  UNL1       -0.1544
     23 C         139.6775  141.8165  159.2820 C.ar    1  UNL1        0.1226
     24 C         139.4686  141.6504  157.8059 C.ar    1  UNL1        0.1198
     25 N         139.3328  140.2773  157.2176 N.ar    1  UNL1       -0.2358
     26 C         139.4058  139.0703  158.1052 C.ar    1  UNL1        0.1564
     27 C         139.6147  139.2365  159.5813 C.ar    1  UNL1        0.2447
     28 N         139.7506  140.6096  160.1696 N.ar    1  UNL1       -0.2072
     29 O         139.6878  138.0295  160.4690 O.3     1  UNL1       -0.4615
     30 C         140.5731  138.0416  161.6799 C.3     1  UNL1        0.1830
     31 C         142.0626  138.1155  161.5191 C.3     1  UNL1        0.1127
     32 N         142.9479  138.1276  162.7300 N.3     1  UNL1       -0.2945
     33 C         142.3437  138.0657  164.1016 C.3     1  UNL1        0.0688
     34 C         140.8541  137.9919  164.2622 C.3     1  UNL1        0.0206
     35 C         139.9689  137.9798  163.0514 C.3     1  UNL1        0.0396
     36 C         138.5977  137.9302  162.4450 C.3     1  UNL1        0.0037
     37 C         138.7600  137.9015  163.9360 C.3     1  UNL1        0.0037
     38 H         143.4936  138.9882  162.6872 H       1  UNL1        0.1234
@<TRIPOS>BOND
     1    19    20    1
     2    20    21    2
     3    20    22    2
     4    20    17    1
     5    17    10    1
     6    10    11   ar
     7    11    12   ar
     8    12    13   ar
     9    13     1    1
    10     1     2    2
    11     2     3    1
    12     3     4    2
    13     4     5    1
    14     5     6    2
    15     6     7    1
    16     7    23    1
    17    23    24   ar
    18    24    25   ar
    19    25    26   ar
    20    26    27   ar
    21    27    29    1
    22    30    29    1
    23    30    31    1
    24    31    32    1
    25    32    33    1
    26    33    34    1
    27    34    35    1
    28    35    36    1
    29    36    37    1
    30    27    28   ar
    31     7     8    2
    32     8     9    1
    33    13    14   ar
    34    14    15    1
    35    14    16   ar
    36    16    10   ar
    37     9     1    1
    38     8     4    1
    39    28    23   ar
    40    35    30    1
    41    37    35    1
    42    17    18    1
    43    32    38    1
