@<TRIPOS>MOLECULE
*****
 33 38 0 0 0
SMALL
GASTEIGER

@<TRIPOS>ATOM
      1 O         144.8679  142.2506  158.4503 O.2     1  UNL1       -0.2745
      2 C         143.5582  142.1886  159.1790 C.2     1  UNL1        0.2302
      3 N         143.5323  142.2156  160.6785 N.am    1  UNL1       -0.2764
      4 C         144.8160  142.3046  161.4493 C.3     1  UNL1        0.1107
      5 C         144.7900  142.3316  162.9488 C.3     1  UNL1        0.0940
      6 N         143.4804  142.2696  163.6775 N.3     1  UNL1       -0.2665
      7 C         143.4545  142.2966  165.1771 C.3     1  UNL1        0.1067
      8 C         142.1448  142.2346  165.9058 C.3     1  UNL1        0.1534
      9 O         140.8611  142.1456  165.1349 O.3     1  UNL1       -0.3489
     10 C         140.8871  142.1186  163.6354 C.3     1  UNL1        0.1601
     11 C         142.1967  142.1806  162.9067 C.3     1  UNL1        0.1075
     12 C         142.2227  142.1536  161.4072 C.3     1  UNL1        0.1119
     13 C         142.1189  142.2616  167.4053 C.ar    1  UNL1        0.0076
     14 C         143.4045  142.3030  168.1771 C.ar    1  UNL1       -0.0001
     15 C         143.3785  142.3300  169.6766 C.ar    1  UNL1        0.0239
     16 C         142.0670  142.3156  170.4044 C.ar    1  UNL1        0.1431
     17 N         141.7299  142.3353  171.8659 N.ar    1  UNL1       -0.0483
     18 O         140.2359  142.3060  171.9974 O.2     1  UNL1       -0.2415
     19 N         139.6498  142.2682  170.6172 N.ar    1  UNL1       -0.0483
     20 C         140.7814  142.2741  169.6327 C.ar    1  UNL1        0.1429
     21 C         140.8073  142.2471  168.1331 C.ar    1  UNL1        0.0222
     22 C         142.2745  142.0996  158.4082 C.3     1  UNL1        0.1131
     23 C         141.6866  143.3312  157.7855 C.ar    1  UNL1        0.0062
     24 C         142.4198  144.6371  157.8694 C.ar    1  UNL1        0.0009
     25 C         141.8318  145.8685  157.2467 C.ar    1  UNL1        0.0386
     26 C         140.5108  145.7941  156.5401 C.ar    1  UNL1        0.1672
     27 N         139.7776  144.4882  156.4562 N.ar    1  UNL1       -0.2252
     28 C         140.3655  143.2567  157.0789 C.ar    1  UNL1        0.0968
     29 N         139.9228  147.0257  155.9174 N.ar    1  UNL1       -0.1708
     30 C         140.2129  147.5410  154.5389 C.ar    1  UNL1        0.2272
     31 N         139.4110  148.7919  154.3334 N.ar    1  UNL1       -0.1044
     32 N         138.6254  149.0497  155.5850 N.ar    1  UNL1       -0.0222
     33 N         138.9417  147.9581  156.5639 N.ar    1  UNL1       -0.0371
@<TRIPOS>BOND
     1     1     2    2
     2     2    22    1
     3    22    23    1
     4    23    24   ar
     5    24    25   ar
     6    25    26   ar
     7    26    29    1
     8    29    30   ar
     9    30    31   ar
    10    31    32   ar
    11    32    33   ar
    12    26    27   ar
    13    27    28   ar
    14     2     3   am
    15     3     4    1
    16     4     5    1
    17     5     6    1
    18     6     7    1
    19     7     8    1
    20     8    13    1
    21    13    14   ar
    22    14    15   ar
    23    15    16   ar
    24    16    17   ar
    25    17    18   ar
    26    18    19   ar
    27    19    20   ar
    28    20    21   ar
    29     8     9    1
    30     9    10    1
    31    11    10    1
    32    11    12    1
    33    28    23   ar
    34    12     3    1
    35    33    29   ar
    36    11     6    1
    37    21    13   ar
    38    20    16   ar
@<TRIPOS>MOLECULE
*****
 33 38 0 0 0
SMALL
GASTEIGER

@<TRIPOS>ATOM
      1 O         142.9416  144.3461  158.3415 O.2     1  UNL1       -0.2745
      2 C         141.7597  144.3667  159.2649 C.2     1  UNL1        0.2302
      3 N         141.9262  143.9811  160.7050 N.am    1  UNL1       -0.2764
      4 C         143.2746  143.5750  161.2215 C.3     1  UNL1        0.1107
      5 C         143.4411  143.1894  162.6615 C.3     1  UNL1        0.0940
      6 N         142.2592  143.2100  163.5849 N.3     1  UNL1       -0.2665
      7 C         142.4257  142.8245  165.0250 C.3     1  UNL1        0.1067
      8 C         141.2438  142.8451  165.9484 C.3     1  UNL1        0.1534
      9 O         139.8954  143.2513  165.4318 O.3     1  UNL1       -0.3489
     10 C         139.7289  143.6368  163.9918 C.3     1  UNL1        0.1601
     11 C         140.9108  143.6162  163.0684 C.3     1  UNL1        0.1075
     12 C         140.7443  144.0017  161.6284 C.3     1  UNL1        0.1119
     13 C         141.4103  142.4596  167.3884 C.ar    1  UNL1        0.0076
     14 C         142.5809  141.6217  167.8100 C.ar    1  UNL1       -0.0001
     15 C         142.7474  141.2362  169.2500 C.ar    1  UNL1        0.0239
     16 C         141.7433  141.6885  170.2684 C.ar    1  UNL1        0.1431
     17 N         141.6451  141.4662  171.7486 N.ar    1  UNL1       -0.0483
     18 O         140.4138  142.1666  172.2418 O.2     1  UNL1       -0.2415
     19 N         139.7510  142.8218  171.0665 N.ar    1  UNL1       -0.0483
     20 C         140.5727  142.5262  169.8469 C.ar    1  UNL1        0.1429
     21 C         140.4062  142.9118  168.4068 C.ar    1  UNL1        0.0222
     22 C         140.4113  144.7728  158.7484 C.3     1  UNL1        0.1131
     23 C         139.5096  143.7513  158.1209 C.ar    1  UNL1        0.0062
     24 C         138.9690  143.9755  156.7398 C.ar    1  UNL1        0.0009
     25 C         138.0674  142.9540  156.1124 C.ar    1  UNL1        0.0386
     26 C         137.7064  141.7084  156.8661 C.ar    1  UNL1        0.1672
     27 N         138.2470  141.4842  158.2472 N.ar    1  UNL1       -0.2252
     28 C         139.1486  142.5057  158.8746 C.ar    1  UNL1        0.0968
     29 N         136.8047  140.6869  156.2386 N.ar    1  UNL1       -0.1708
     30 C         135.3154  140.6082  156.3991 C.ar    1  UNL1        0.2272
     31 N         134.8243  139.4375  155.6003 N.ar    1  UNL1       -0.1044
     32 N         136.0101  138.7927  154.9460 N.ar    1  UNL1       -0.0222
     33 N         137.2341  139.5649  155.3405 N.ar    1  UNL1       -0.0371
@<TRIPOS>BOND
     1     1     2    2
     2     2    22    1
     3    22    23    1
     4    23    24   ar
     5    24    25   ar
     6    25    26   ar
     7    26    29    1
     8    29    30   ar
     9    30    31   ar
    10    31    32   ar
    11    32    33   ar
    12    26    27   ar
    13    27    28   ar
    14     2     3   am
    15     3     4    1
    16     4     5    1
    17     5     6    1
    18     6     7    1
    19     7     8    1
    20     8    13    1
    21    13    14   ar
    22    14    15   ar
    23    15    16   ar
    24    16    17   ar
    25    17    18   ar
    26    18    19   ar
    27    19    20   ar
    28    20    21   ar
    29     8     9    1
    30     9    10    1
    31    11    10    1
    32    11    12    1
    33    28    23   ar
    34    12     3    1
    35    33    29   ar
    36    11     6    1
    37    21    13   ar
    38    20    16   ar
@<TRIPOS>MOLECULE
*****
 33 38 0 0 0
SMALL
GASTEIGER

@<TRIPOS>ATOM
      1 O         144.4505  142.7383  158.3416 O.2     1  UNL1       -0.2745
      2 C         143.2767  142.2159  159.1158 C.2     1  UNL1        0.2302
      3 N         143.2676  142.3023  160.6133 N.am    1  UNL1       -0.2764
      4 C         144.4321  142.9111  161.3366 C.3     1  UNL1        0.1107
      5 C         144.4229  142.9976  162.8340 C.3     1  UNL1        0.0940
      6 N         143.2491  142.4751  163.6082 N.3     1  UNL1       -0.2665
      7 C         143.2399  142.5616  165.1057 C.3     1  UNL1        0.1067
      8 C         142.0662  142.0391  165.8799 C.3     1  UNL1        0.1534
      9 O         140.9016  141.4303  165.1566 O.3     1  UNL1       -0.3489
     10 C         140.9108  141.3438  163.6591 C.3     1  UNL1        0.1601
     11 C         142.0846  141.8663  162.8849 C.3     1  UNL1        0.1075
     12 C         142.0938  141.7799  161.3875 C.3     1  UNL1        0.1119
     13 C         142.0570  142.1255  167.3774 C.ar    1  UNL1        0.0076
     14 C         143.3451  142.2967  168.1267 C.ar    1  UNL1       -0.0001
     15 C         143.3359  142.3831  169.6242 C.ar    1  UNL1        0.0239
     16 C         142.0385  142.2984  170.3724 C.ar    1  UNL1        0.1431
     17 N         141.7192  142.3522  171.8370 N.ar    1  UNL1       -0.0483
     18 O         140.2337  142.2143  171.9928 O.2     1  UNL1       -0.2415
     19 N         139.6350  142.0753  170.6245 N.ar    1  UNL1       -0.0483
     20 C         140.7504  142.1272  169.6231 C.ar    1  UNL1        0.1429
     21 C         140.7596  142.0408  168.1256 C.ar    1  UNL1        0.0222
     22 C         142.1122  141.6070  158.3925 C.3     1  UNL1        0.1131
     23 C         142.1647  140.1713  157.9612 C.ar    1  UNL1        0.0062
     24 C         141.5211  139.7511  156.6731 C.ar    1  UNL1        0.0009
     25 C         141.5735  138.3154  156.2419 C.ar    1  UNL1        0.0386
     26 C         142.2696  137.2999  157.0987 C.ar    1  UNL1        0.1672
     27 N         142.9132  137.7200  158.3868 N.ar    1  UNL1       -0.2252
     28 C         142.8607  139.1557  158.8180 C.ar    1  UNL1        0.0968
     29 N         142.3220  135.8641  156.6674 N.ar    1  UNL1       -0.1708
     30 C         141.4628  135.2276  155.6154 C.ar    1  UNL1        0.2272
     31 N         141.8526  133.7830  155.5102 N.ar    1  UNL1       -0.1044
     32 N         142.9527  133.5267  156.4972 N.ar    1  UNL1       -0.0222
     33 N         143.2428  134.8129  157.2123 N.ar    1  UNL1       -0.0371
@<TRIPOS>BOND
     1     1     2    2
     2     2    22    1
     3    22    23    1
     4    23    24   ar
     5    24    25   ar
     6    25    26   ar
     7    26    29    1
     8    29    30   ar
     9    30    31   ar
    10    31    32   ar
    11    32    33   ar
    12    26    27   ar
    13    27    28   ar
    14     2     3   am
    15     3     4    1
    16     4     5    1
    17     5     6    1
    18     6     7    1
    19     7     8    1
    20     8    13    1
    21    13    14   ar
    22    14    15   ar
    23    15    16   ar
    24    16    17   ar
    25    17    18   ar
    26    18    19   ar
    27    19    20   ar
    28    20    21   ar
    29     8     9    1
    30     9    10    1
    31    11    10    1
    32    11    12    1
    33    28    23   ar
    34    12     3    1
    35    33    29   ar
    36    11     6    1
    37    21    13   ar
    38    20    16   ar
@<TRIPOS>MOLECULE
*****
 33 38 0 0 0
SMALL
GASTEIGER

@<TRIPOS>ATOM
      1 O         137.7243  140.1782  158.4265 O.2     1  UNL1       -0.2745
      2 C         139.0232  140.3054  159.1658 C.2     1  UNL1        0.2302
      3 N         139.0277  140.4036  160.6627 N.am    1  UNL1       -0.2764
      4 C         137.7333  140.3745  161.4201 C.3     1  UNL1        0.1107
      5 C         137.7378  140.4726  162.9168 C.3     1  UNL1        0.0940
      6 N         139.0367  140.5998  163.6562 N.3     1  UNL1       -0.2665
      7 C         139.0412  140.6979  165.1530 C.3     1  UNL1        0.1067
      8 C         140.3401  140.8251  165.8924 C.3     1  UNL1        0.1534
      9 O         141.6346  140.8542  165.1349 O.3     1  UNL1       -0.3489
     10 C         141.6300  140.7561  163.6382 C.3     1  UNL1        0.1601
     11 C         140.3311  140.6289  162.8988 C.3     1  UNL1        0.1075
     12 C         140.3266  140.5308  161.4020 C.3     1  UNL1        0.1119
     13 C         140.3446  140.9232  167.3891 C.ar    1  UNL1        0.0076
     14 C         139.3789  140.1080  168.1971 C.ar    1  UNL1       -0.0001
     15 C         139.3834  140.2061  169.6939 C.ar    1  UNL1        0.0239
     16 C         140.3536  141.1194  170.3827 C.ar    1  UNL1        0.1431
     17 N         140.5905  141.4229  171.8325 N.ar    1  UNL1       -0.0483
     18 O         141.7025  142.4256  171.9205 O.2     1  UNL1       -0.2415
     19 N         142.1530  142.7419  170.5251 N.ar    1  UNL1       -0.0483
     20 C         141.3194  141.9346  169.5748 C.ar    1  UNL1        0.1429
     21 C         141.3149  141.8365  168.0779 C.ar    1  UNL1        0.0222
     22 C         140.3176  140.3345  158.4085 C.3     1  UNL1        0.1131
     23 C         140.9896  139.0502  158.0222 C.ar    1  UNL1        0.0062
     24 C         140.4177  138.2058  156.9223 C.ar    1  UNL1        0.0009
     25 C         141.0897  136.9216  156.5361 C.ar    1  UNL1        0.0386
     26 C         142.3336  136.4819  157.2498 C.ar    1  UNL1        0.1672
     27 N         142.9055  137.3263  158.3496 N.ar    1  UNL1       -0.2252
     28 C         142.2335  138.6105  158.7358 C.ar    1  UNL1        0.0968
     29 N         143.0056  135.1976  156.8635 N.ar    1  UNL1       -0.1708
     30 C         143.1484  134.6617  155.4698 C.ar    1  UNL1        0.2272
     31 N         143.8838  133.3567  155.5480 N.ar    1  UNL1       -0.1044
     32 N         144.1956  133.0861  156.9901 N.ar    1  UNL1       -0.0222
     33 N         143.6528  134.2238  157.8031 N.ar    1  UNL1       -0.0371
@<TRIPOS>BOND
     1     1     2    2
     2     2    22    1
     3    22    23    1
     4    23    24   ar
     5    24    25   ar
     6    25    26   ar
     7    26    29    1
     8    29    30   ar
     9    30    31   ar
    10    31    32   ar
    11    32    33   ar
    12    26    27   ar
    13    27    28   ar
    14     2     3   am
    15     3     4    1
    16     4     5    1
    17     5     6    1
    18     6     7    1
    19     7     8    1
    20     8    13    1
    21    13    14   ar
    22    14    15   ar
    23    15    16   ar
    24    16    17   ar
    25    17    18   ar
    26    18    19   ar
    27    19    20   ar
    28    20    21   ar
    29     8     9    1
    30     9    10    1
    31    11    10    1
    32    11    12    1
    33    28    23   ar
    34    12     3    1
    35    33    29   ar
    36    11     6    1
    37    21    13   ar
    38    20    16   ar
@<TRIPOS>MOLECULE
*****
 33 38 0 0 0
SMALL
GASTEIGER

@<TRIPOS>ATOM
      1 O         137.6813  139.9536  158.8264 O.2     1  UNL1       -0.2745
      2 C         138.8776  139.3870  159.5320 C.2     1  UNL1        0.2302
      3 N         139.0975  139.6779  160.9871 N.am    1  UNL1       -0.2764
      4 C         138.1212  140.5352  161.7365 C.3     1  UNL1        0.1107
      5 C         138.3411  140.8260  163.1914 C.3     1  UNL1        0.0940
      6 N         139.5374  140.2594  163.8971 N.3     1  UNL1       -0.2665
      7 C         139.7573  140.5503  165.3521 C.3     1  UNL1        0.1067
      8 C         140.9536  139.9837  166.0577 C.3     1  UNL1        0.1534
      9 O         141.9299  139.1263  165.3083 O.3     1  UNL1       -0.3489
     10 C         141.7100  138.8355  163.8533 C.3     1  UNL1        0.1601
     11 C         140.5137  139.4021  163.1477 C.3     1  UNL1        0.1075
     12 C         140.2938  139.1113  161.6927 C.3     1  UNL1        0.1119
     13 C         141.1735  140.2745  167.5127 C.ar    1  UNL1        0.0076
     14 C         142.3462  139.6729  168.2289 C.ar    1  UNL1       -0.0001
     15 C         142.5662  139.9637  169.6839 C.ar    1  UNL1        0.0239
     16 C         141.6135  140.8561  170.4228 C.ar    1  UNL1        0.1431
     17 N         141.5735  141.3199  171.8487 N.ar    1  UNL1       -0.0483
     18 O         140.3761  142.2081  172.0138 O.2     1  UNL1       -0.2415
     19 N         139.6760  142.2933  170.6899 N.ar    1  UNL1       -0.0483
     20 C         140.4408  141.4577  169.7066 C.ar    1  UNL1        0.1429
     21 C         140.2208  141.1669  168.2516 C.ar    1  UNL1        0.0222
     22 C         139.8539  138.5296  158.7827 C.3     1  UNL1        0.1131
     23 C         141.1331  139.1222  158.2700 C.ar    1  UNL1        0.0062
     24 C         141.2684  140.6097  158.1326 C.ar    1  UNL1        0.0009
     25 C         142.5475  141.2022  157.6199 C.ar    1  UNL1        0.0386
     26 C         143.6912  140.3071  157.2446 C.ar    1  UNL1        0.1672
     27 N         143.5558  138.8196  157.3819 N.ar    1  UNL1       -0.2252
     28 C         142.2767  138.2271  157.8946 C.ar    1  UNL1        0.0968
     29 N         144.9703  140.8997  156.7319 N.ar    1  UNL1       -0.1708
     30 C         145.6487  142.1273  157.2636 C.ar    1  UNL1        0.2272
     31 N         146.8933  142.3550  156.4578 N.ar    1  UNL1       -0.1044
     32 N         146.9840  141.2680  155.4281 N.ar    1  UNL1       -0.0222
     33 N         145.7956  140.3686  155.5974 N.ar    1  UNL1       -0.0371
@<TRIPOS>BOND
     1     1     2    2
     2     2    22    1
     3    22    23    1
     4    23    24   ar
     5    24    25   ar
     6    25    26   ar
     7    26    29    1
     8    29    30   ar
     9    30    31   ar
    10    31    32   ar
    11    32    33   ar
    12    26    27   ar
    13    27    28   ar
    14     2     3   am
    15     3     4    1
    16     4     5    1
    17     5     6    1
    18     6     7    1
    19     7     8    1
    20     8    13    1
    21    13    14   ar
    22    14    15   ar
    23    15    16   ar
    24    16    17   ar
    25    17    18   ar
    26    18    19   ar
    27    19    20   ar
    28    20    21   ar
    29     8     9    1
    30     9    10    1
    31    11    10    1
    32    11    12    1
    33    28    23   ar
    34    12     3    1
    35    33    29   ar
    36    11     6    1
    37    21    13   ar
    38    20    16   ar
@<TRIPOS>MOLECULE
*****
 33 38 0 0 0
SMALL
GASTEIGER

@<TRIPOS>ATOM
      1 O         138.0592  142.9155  158.7587 O.2     1  UNL1       -0.2745
      2 C         139.4311  142.8504  159.3618 C.2     1  UNL1        0.2302
      3 N         139.5927  142.7723  160.8511 N.am    1  UNL1       -0.2764
      4 C         138.3826  142.7594  161.7372 C.3     1  UNL1        0.1107
      5 C         138.5443  142.6814  163.2264 C.3     1  UNL1        0.0940
      6 N         139.9161  142.6162  163.8294 N.3     1  UNL1       -0.2665
      7 C         140.0778  142.5381  165.3187 C.3     1  UNL1        0.1067
      8 C         141.4497  142.4730  165.9218 C.3     1  UNL1        0.1534
      9 O         142.6599  142.4859  165.0356 O.3     1  UNL1       -0.3489
     10 C         142.4982  142.5640  163.5464 C.3     1  UNL1        0.1601
     11 C         141.1263  142.6291  162.9433 C.3     1  UNL1        0.1075
     12 C         140.9646  142.7072  161.4541 C.3     1  UNL1        0.1119
     13 C         141.6114  142.3949  167.4109 C.ar    1  UNL1        0.0076
     14 C         142.9797  142.2606  168.0108 C.ar    1  UNL1       -0.0001
     15 C         143.1414  142.1825  169.5000 C.ar    1  UNL1        0.0239
     16 C         141.9349  142.2388  170.3894 C.ar    1  UNL1        0.1431
     17 N         141.7840  142.1854  171.8808 N.ar    1  UNL1       -0.0483
     18 O         140.3225  142.2867  172.2028 O.2     1  UNL1       -0.2415
     19 N         139.5701  142.4028  170.9103 N.ar    1  UNL1       -0.0483
     20 C         140.5666  142.3732  169.7896 C.ar    1  UNL1        0.1429
     21 C         140.4049  142.4513  168.3004 C.ar    1  UNL1        0.0222
     22 C         140.6412  142.8633  158.4757 C.3     1  UNL1        0.1131
     23 C         141.2312  141.5713  157.9929 C.ar    1  UNL1        0.0062
     24 C         140.4236  140.3088  158.0542 C.ar    1  UNL1        0.0009
     25 C         141.0135  139.0170  157.5715 C.ar    1  UNL1        0.0386
     26 C         142.4111  138.9877  157.0275 C.ar    1  UNL1        0.1672
     27 N         143.2187  140.2502  156.9662 N.ar    1  UNL1       -0.2252
     28 C         142.6288  141.5420  157.4489 C.ar    1  UNL1        0.0968
     29 N         143.0010  137.6957  156.5448 N.ar    1  UNL1       -0.1708
     30 C         142.4572  136.3236  156.8126 C.ar    1  UNL1        0.2272
     31 N         143.3584  135.3290  156.1429 N.ar    1  UNL1       -0.1044
     32 N         144.4592  136.0864  155.4611 N.ar    1  UNL1       -0.0222
     33 N         144.2383  137.5491  155.7095 N.ar    1  UNL1       -0.0371
@<TRIPOS>BOND
     1     1     2    2
     2     2    22    1
     3    22    23    1
     4    23    24   ar
     5    24    25   ar
     6    25    26   ar
     7    26    29    1
     8    29    30   ar
     9    30    31   ar
    10    31    32   ar
    11    32    33   ar
    12    26    27   ar
    13    27    28   ar
    14     2     3   am
    15     3     4    1
    16     4     5    1
    17     5     6    1
    18     6     7    1
    19     7     8    1
    20     8    13    1
    21    13    14   ar
    22    14    15   ar
    23    15    16   ar
    24    16    17   ar
    25    17    18   ar
    26    18    19   ar
    27    19    20   ar
    28    20    21   ar
    29     8     9    1
    30     9    10    1
    31    11    10    1
    32    11    12    1
    33    28    23   ar
    34    12     3    1
    35    33    29   ar
    36    11     6    1
    37    21    13   ar
    38    20    16   ar
@<TRIPOS>MOLECULE
*****
 33 38 0 0 0
SMALL
GASTEIGER

@<TRIPOS>ATOM
      1 O         137.6048  140.2603  158.5001 O.2     1  UNL1       -0.2745
      2 C         138.7892  140.8969  159.1651 C.2     1  UNL1        0.2302
      3 N         138.8496  140.9891  160.6611 N.am    1  UNL1       -0.2764
      4 C         137.7258  140.4448  161.4920 C.3     1  UNL1        0.1107
      5 C         137.7862  140.5370  162.9879 C.3     1  UNL1        0.0940
      6 N         138.9706  141.1736  163.6529 N.3     1  UNL1       -0.2665
      7 C         139.0310  141.2658  165.1489 C.3     1  UNL1        0.1067
      8 C         140.2153  141.9025  165.8138 C.3     1  UNL1        0.1534
      9 O         141.3392  142.4468  164.9827 O.3     1  UNL1       -0.3489
     10 C         141.2787  142.3546  163.4868 C.3     1  UNL1        0.1601
     11 C         140.0944  141.7180  162.8219 C.3     1  UNL1        0.1075
     12 C         140.0339  141.6258  161.3260 C.3     1  UNL1        0.1119
     13 C         140.2758  141.9947  167.3097 C.ar    1  UNL1        0.0076
     14 C         140.3620  143.3361  167.9756 C.ar    1  UNL1       -0.0001
     15 C         140.4225  143.4283  169.4715 C.ar    1  UNL1        0.0239
     16 C         140.3968  142.1792  170.3016 C.ar    1  UNL1        0.1431
     17 N         140.4425  141.9585  171.7845 N.ar    1  UNL1       -0.0483
     18 O         140.3845  140.4807  172.0352 O.2     1  UNL1       -0.2415
     19 N         140.3030  139.7881  170.7072 N.ar    1  UNL1       -0.0483
     20 C         140.3105  140.8379  169.6358 C.ar    1  UNL1        0.1429
     21 C         140.2501  140.7456  168.1398 C.ar    1  UNL1        0.0222
     22 C         139.9130  141.4413  158.3341 C.3     1  UNL1        0.1131
     23 C         139.7931  142.7989  157.7074 C.ar    1  UNL1        0.0062
     24 C         139.1747  142.9457  156.3487 C.ar    1  UNL1        0.0009
     25 C         139.0548  144.3033  155.7220 C.ar    1  UNL1        0.0386
     26 C         139.5532  145.5139  156.4541 C.ar    1  UNL1        0.1672
     27 N         140.1715  145.3671  157.8128 N.ar    1  UNL1       -0.2252
     28 C         140.2915  144.0095  158.4394 C.ar    1  UNL1        0.0968
     29 N         139.4333  146.8715  155.8274 N.ar    1  UNL1       -0.1708
     30 C         139.9382  147.2639  154.4705 C.ar    1  UNL1        0.2272
     31 N         139.6044  148.7099  154.2520 N.ar    1  UNL1       -0.1044
     32 N         138.8932  149.2111  155.4739 N.ar    1  UNL1       -0.0222
     33 N         138.7875  148.0749  156.4475 N.ar    1  UNL1       -0.0371
@<TRIPOS>BOND
     1     1     2    2
     2     2    22    1
     3    22    23    1
     4    23    24   ar
     5    24    25   ar
     6    25    26   ar
     7    26    29    1
     8    29    30   ar
     9    30    31   ar
    10    31    32   ar
    11    32    33   ar
    12    26    27   ar
    13    27    28   ar
    14     2     3   am
    15     3     4    1
    16     4     5    1
    17     5     6    1
    18     6     7    1
    19     7     8    1
    20     8    13    1
    21    13    14   ar
    22    14    15   ar
    23    15    16   ar
    24    16    17   ar
    25    17    18   ar
    26    18    19   ar
    27    19    20   ar
    28    20    21   ar
    29     8     9    1
    30     9    10    1
    31    11    10    1
    32    11    12    1
    33    28    23   ar
    34    12     3    1
    35    33    29   ar
    36    11     6    1
    37    21    13   ar
    38    20    16   ar
@<TRIPOS>MOLECULE
*****
 33 38 0 0 0
SMALL
GASTEIGER

@<TRIPOS>ATOM
      1 O         140.4497  145.6478  158.7983 O.2     1  UNL1       -0.2745
      2 C         140.0443  144.3141  159.3525 C.2     1  UNL1        0.2302
      3 N         140.1636  144.0455  160.8234 N.am    1  UNL1       -0.2764
      4 C         140.6884  145.1104  161.7402 C.3     1  UNL1        0.1107
      5 C         140.8077  144.8417  163.2111 C.3     1  UNL1        0.0940
      6 N         140.4022  143.5081  163.7652 N.3     1  UNL1       -0.2665
      7 C         140.5216  143.2394  165.2361 C.3     1  UNL1        0.1067
      8 C         140.1161  141.9058  165.7903 C.3     1  UNL1        0.1534
      9 O         139.5913  140.8408  164.8734 O.3     1  UNL1       -0.3489
     10 C         139.4720  141.1095  163.4025 C.3     1  UNL1        0.1601
     11 C         139.8775  142.4432  162.8484 C.3     1  UNL1        0.1075
     12 C         139.7582  142.7118  161.3775 C.3     1  UNL1        0.1119
     13 C         140.2354  141.6371  167.2611 C.ar    1  UNL1        0.0076
     14 C         139.6466  140.3873  167.8455 C.ar    1  UNL1       -0.0001
     15 C         139.7659  140.1186  169.3163 C.ar    1  UNL1        0.0239
     16 C         140.4740  141.0997  170.2030 C.ar    1  UNL1        0.1431
     17 N         140.7464  141.1046  171.6780 N.ar    1  UNL1       -0.0483
     18 O         141.5036  142.3574  172.0054 O.2     1  UNL1       -0.2415
     19 N         141.6992  143.1268  170.7326 N.ar    1  UNL1       -0.0483
     20 C         141.0629  142.3494  169.6187 C.ar    1  UNL1        0.1429
     21 C         140.9436  142.6181  168.1478 C.ar    1  UNL1        0.0222
     22 C         139.5195  143.2492  158.4357 C.3     1  UNL1        0.1131
     23 C         140.4298  142.1582  157.9548 C.ar    1  UNL1        0.0062
     24 C         141.8879  142.1889  158.3056 C.ar    1  UNL1        0.0009
     25 C         142.7981  141.0980  157.8247 C.ar    1  UNL1        0.0386
     26 C         142.2502  139.9763  156.9930 C.ar    1  UNL1        0.1672
     27 N         140.7922  139.9456  156.6422 N.ar    1  UNL1       -0.2252
     28 C         139.8820  141.0365  157.1231 C.ar    1  UNL1        0.0968
     29 N         143.1605  138.8853  156.5121 N.ar    1  UNL1       -0.1708
     30 C         142.9353  137.4117  156.6788 C.ar    1  UNL1        0.2272
     31 N         144.0914  136.6920  156.0498 N.ar    1  UNL1       -0.1044
     32 N         145.0311  137.7209  155.4945 N.ar    1  UNL1       -0.0222
     33 N         144.4558  139.0764  155.7802 N.ar    1  UNL1       -0.0371
@<TRIPOS>BOND
     1     1     2    2
     2     2    22    1
     3    22    23    1
     4    23    24   ar
     5    24    25   ar
     6    25    26   ar
     7    26    29    1
     8    29    30   ar
     9    30    31   ar
    10    31    32   ar
    11    32    33   ar
    12    26    27   ar
    13    27    28   ar
    14     2     3   am
    15     3     4    1
    16     4     5    1
    17     5     6    1
    18     6     7    1
    19     7     8    1
    20     8    13    1
    21    13    14   ar
    22    14    15   ar
    23    15    16   ar
    24    16    17   ar
    25    17    18   ar
    26    18    19   ar
    27    19    20   ar
    28    20    21   ar
    29     8     9    1
    30     9    10    1
    31    11    10    1
    32    11    12    1
    33    28    23   ar
    34    12     3    1
    35    33    29   ar
    36    11     6    1
    37    21    13   ar
    38    20    16   ar
@<TRIPOS>MOLECULE
*****
 33 38 0 0 0
SMALL
GASTEIGER

@<TRIPOS>ATOM
      1 O         143.2561  138.2698  158.6510 O.2     1  UNL1       -0.2745
      2 C         143.0844  139.5629  159.3915 C.2     1  UNL1        0.2302
      3 N         142.8517  139.5534  160.8733 N.am    1  UNL1       -0.2764
      4 C         142.7907  138.2509  161.6146 C.3     1  UNL1        0.1107
      5 C         142.5581  138.2415  163.0964 C.3     1  UNL1        0.0940
      6 N         142.3863  139.5346  163.8369 N.3     1  UNL1       -0.2665
      7 C         142.1537  139.5251  165.3188 C.3     1  UNL1        0.1067
      8 C         141.9819  140.8183  166.0592 C.3     1  UNL1        0.1534
      9 O         142.0429  142.1209  165.3178 O.3     1  UNL1       -0.3489
     10 C         142.2756  142.1303  163.8361 C.3     1  UNL1        0.1601
     11 C         142.4473  140.8372  163.0956 C.3     1  UNL1        0.1075
     12 C         142.6800  140.8466  161.6138 C.3     1  UNL1        0.1119
     13 C         141.7492  140.8089  167.5410 C.ar    1  UNL1        0.0076
     14 C         142.1812  139.6291  168.3606 C.ar    1  UNL1       -0.0001
     15 C         141.9485  139.6197  169.8424 C.ar    1  UNL1        0.0239
     16 C         141.2839  140.7900  170.5047 C.ar    1  UNL1        0.1431
     17 N         140.9247  141.0629  171.9352 N.ar    1  UNL1       -0.0483
     18 O         140.2707  142.4112  171.9998 O.2     1  UNL1       -0.2415
     19 N         140.2258  142.9717  170.6092 N.ar    1  UNL1       -0.0483
     20 C         140.8519  141.9697  169.6852 C.ar    1  UNL1        0.1429
     21 C         141.0846  141.9792  168.2033 C.ar    1  UNL1        0.0222
     22 C         143.1454  140.8655  158.6502 C.3     1  UNL1        0.1131
     23 C         144.3358  141.1874  157.7961 C.ar    1  UNL1        0.0062
     24 C         144.5938  140.4040  156.5432 C.ar    1  UNL1        0.0009
     25 C         145.7841  140.7260  155.6892 C.ar    1  UNL1        0.0386
     26 C         146.7165  141.8313  156.0881 C.ar    1  UNL1        0.1672
     27 N         146.4585  142.6146  157.3409 N.ar    1  UNL1       -0.2252
     28 C         145.2681  142.2927  158.1949 C.ar    1  UNL1        0.0968
     29 N         147.9069  142.1532  155.2340 N.ar    1  UNL1       -0.1708
     30 C         147.9053  143.0206  154.0102 C.ar    1  UNL1        0.2272
     31 N         149.3052  143.0678  153.4736 N.ar    1  UNL1       -0.1044
     32 N         150.1720  142.2294  154.3657 N.ar    1  UNL1       -0.0222
     33 N         149.3078  141.6642  155.4537 N.ar    1  UNL1       -0.0371
@<TRIPOS>BOND
     1     1     2    2
     2     2    22    1
     3    22    23    1
     4    23    24   ar
     5    24    25   ar
     6    25    26   ar
     7    26    29    1
     8    29    30   ar
     9    30    31   ar
    10    31    32   ar
    11    32    33   ar
    12    26    27   ar
    13    27    28   ar
    14     2     3   am
    15     3     4    1
    16     4     5    1
    17     5     6    1
    18     6     7    1
    19     7     8    1
    20     8    13    1
    21    13    14   ar
    22    14    15   ar
    23    15    16   ar
    24    16    17   ar
    25    17    18   ar
    26    18    19   ar
    27    19    20   ar
    28    20    21   ar
    29     8     9    1
    30     9    10    1
    31    11    10    1
    32    11    12    1
    33    28    23   ar
    34    12     3    1
    35    33    29   ar
    36    11     6    1
    37    21    13   ar
    38    20    16   ar
