@<TRIPOS>MOLECULE
*****
 42 46 0 0 0
SMALL
GASTEIGER

@<TRIPOS>ATOM
      1 O         144.4484  144.5665  162.3327 O.2     1  UNL1       -0.2701
      2 C         143.2005  143.8343  161.9365 C.2     1  UNL1        0.2469
      3 N         143.2335  142.8571  160.7989 N.am    1  UNL1       -0.2985
      4 H         142.4145  142.3766  160.5389 H       1  UNL1        0.1498
      5 C         141.9198  144.0793  162.6778 C.2     1  UNL1        0.0665
      6 C         140.8333  144.8991  162.0475 C.2     1  UNL1        0.0931
      7 N         139.5526  145.1441  162.7889 N.am    1  UNL1       -0.1740
      8 C         139.3583  144.5693  164.1606 C.2     1  UNL1        0.2688
      9 O         138.0775  144.8143  164.9020 O.2     1  UNL1       -0.2680
     10 C         140.4448  143.7494  164.7911 C.2     1  UNL1        0.0533
     11 C         140.2505  143.1745  166.1628 C.2     1  UNL1        0.0239
     12 C         141.3369  142.3547  166.7932 C.2     1  UNL1        0.1184
     13 C         142.6177  142.1097  166.0518 C.2     1  UNL1       -0.0015
     14 C         142.8120  142.6845  164.6800 C.3     1  UNL1        0.0540
     15 C         141.7255  143.5044  164.0497 C.2     1  UNL1       -0.0076
     16 S         141.1427  141.7798  168.1650 S.O2    1  UNL1        0.0630
     17 O         141.6905  140.4660  167.6920 O.2     1  UNL1       -0.1528
     18 O         140.5948  143.0936  168.6380 O.2     1  UNL1       -0.1528
     19 N         140.9484  141.2049  169.5367 N.3     1  UNL1       -0.1554
     20 C         140.1743  140.0520  170.1037 C.3     1  UNL1        0.0973
     21 C         140.6737  140.3918  171.4767 C.3     1  UNL1        0.0383
     22 C         141.4479  141.5447  170.9097 C.3     1  UNL1        0.0973
     23 C         144.5143  142.6121  160.0575 C.3     1  UNL1        0.1204
     24 C         144.4785  142.1588  158.6281 C.3     1  UNL1        0.1459
     25 O         144.7304  143.1414  157.5231 O.3     1  UNL1       -0.3813
     26 H         144.8987  144.0183  157.9023 H       1  UNL1        0.2105
     27 C         144.1907  140.7229  158.3036 C.3     1  UNL1        0.1034
     28 N         143.0936  139.9966  159.0238 N.3     1  UNL1       -0.2704
     29 C         141.6592  140.2982  158.7051 C.3     1  UNL1        0.0759
     30 C         140.5621  139.5719  159.4253 C.3     1  UNL1        0.0609
     31 C         140.8993  138.5439  160.4643 C.3     1  UNL1        0.1687
     32 C         142.3336  138.2422  160.7831 C.3     1  UNL1        0.0609
     33 C         143.4308  138.9686  160.0628 C.3     1  UNL1        0.0759
     34 O         139.8021  137.8176  161.1845 O.3     1  UNL1       -0.4790
     35 C         139.4434  138.2032  162.5890 C.ar    1  UNL1        0.1393
     36 C         139.7332  137.2639  163.7219 C.ar    1  UNL1        0.0378
     37 C         139.3745  137.6495  165.1264 C.ar    1  UNL1        0.0154
     38 C         138.7260  138.9745  165.3980 C.ar    1  UNL1        0.0684
     39 CL        138.3672  139.3602  166.8025 Cl      1  UNL1       -0.0814
     40 C         138.4362  139.9139  164.2651 C.ar    1  UNL1        0.0712
     41 CL        137.7876  141.2390  164.5366 Cl      1  UNL1       -0.0813
     42 C         138.7949  139.5282  162.8606 C.ar    1  UNL1        0.0491
@<TRIPOS>BOND
     1     1     2    2
     2     2     3   am
     3     3    23    1
     4    23    24    1
     5    24    25    1
     6    24    27    1
     7    27    28    1
     8    28    29    1
     9    29    30    1
    10    30    31    1
    11    31    34    1
    12    34    35    1
    13    35    36   ar
    14    36    37   ar
    15    37    38   ar
    16    38    39    1
    17    38    40   ar
    18    40    41    1
    19    40    42   ar
    20    31    32    1
    21    32    33    1
    22     2     5    1
    23     5     6    1
    24     6     7    2
    25     7     8    1
    26     8     9    2
    27     8    10    1
    28    10    11    2
    29    11    12    1
    30    12    16    1
    31    16    17    2
    32    16    18    2
    33    16    19    1
    34    19    20    1
    35    20    21    1
    36    21    22    1
    37    12    13    2
    38    13    14    1
    39    14    15    1
    40    33    28    1
    41    15     5    2
    42    42    35   ar
    43    15    10    1
    44    22    19    1
    45     3     4    1
    46    25    26    1
@<TRIPOS>MOLECULE
*****
 42 46 0 0 0
SMALL
GASTEIGER

@<TRIPOS>ATOM
      1 O         143.8814  143.8568  161.2622 O.2     1  UNL1       -0.2701
      2 C         143.2302  142.6128  160.7345 C.2     1  UNL1        0.2469
      3 N         142.7920  142.5457  159.3015 N.am    1  UNL1       -0.2985
      4 H         142.3646  141.7293  158.9552 H       1  UNL1        0.1498
      5 C         143.0172  141.4359  161.6398 C.2     1  UNL1        0.0665
      6 C         143.3014  140.0485  161.1457 C.2     1  UNL1        0.0931
      7 N         143.0885  138.8716  162.0510 N.am    1  UNL1       -0.1740
      8 C         142.5912  139.0821  163.4504 C.2     1  UNL1        0.2688
      9 O         142.3783  137.9052  164.3557 O.2     1  UNL1       -0.2680
     10 C         142.3070  140.4696  163.9446 C.2     1  UNL1        0.0533
     11 C         141.8098  140.6801  165.3440 C.2     1  UNL1        0.0239
     12 C         141.5255  142.0676  165.8381 C.2     1  UNL1        0.1184
     13 C         141.7385  143.2445  164.9328 C.2     1  UNL1       -0.0015
     14 C         142.2357  143.0339  163.5334 C.3     1  UNL1        0.0540
     15 C         142.5200  141.6465  163.0393 C.2     1  UNL1       -0.0076
     16 S         141.0283  142.2782  167.2376 S.O2    1  UNL1        0.0630
     17 O         142.1838  141.4823  167.7679 O.2     1  UNL1       -0.1528
     18 O         139.8727  143.0740  166.7073 O.2     1  UNL1       -0.1528
     19 N         140.5311  142.4887  168.6370 N.3     1  UNL1       -0.1554
     20 C         140.5193  143.6419  169.5962 C.3     1  UNL1        0.0973
     21 C         139.8280  142.7865  170.6161 C.3     1  UNL1        0.0383
     22 C         139.8397  141.6333  169.6569 C.3     1  UNL1        0.0973
     23 C         143.0050  143.7226  158.3962 C.3     1  UNL1        0.1204
     24 C         141.8562  144.6258  158.0574 C.3     1  UNL1        0.1459
     25 O         141.4950  144.8739  156.6229 O.3     1  UNL1       -0.3813
     26 H         142.0987  144.3789  156.0472 H       1  UNL1        0.2105
     27 C         141.0687  145.2808  159.1532 C.3     1  UNL1        0.1034
     28 N         140.1260  144.4668  159.9890 N.3     1  UNL1       -0.2704
     29 C         139.4088  143.2957  159.3854 C.3     1  UNL1        0.0759
     30 C         138.4661  142.4816  160.2211 C.3     1  UNL1        0.0609
     31 C         138.2404  142.8387  161.6605 C.3     1  UNL1        0.1687
     32 C         138.9575  144.0098  162.2640 C.3     1  UNL1        0.0609
     33 C         139.9003  144.8239  161.4282 C.3     1  UNL1        0.0759
     34 O         137.2976  142.0247  162.4962 O.3     1  UNL1       -0.4790
     35 C         137.7878  140.7898  163.1926 C.ar    1  UNL1        0.1393
     36 C         138.1114  139.5593  162.3983 C.ar    1  UNL1        0.0378
     37 C         138.6016  138.3244  163.0946 C.ar    1  UNL1        0.0154
     38 C         138.7683  138.3202  164.5853 C.ar    1  UNL1        0.0684
     39 CL        139.2585  137.0854  165.2816 Cl      1  UNL1       -0.0814
     40 C         138.4447  139.5508  165.3796 C.ar    1  UNL1        0.0712
     41 CL        138.6114  139.5466  166.8704 Cl      1  UNL1       -0.0813
     42 C         137.9545  140.7856  164.6832 C.ar    1  UNL1        0.0491
@<TRIPOS>BOND
     1     1     2    2
     2     2     3   am
     3     3    23    1
     4    23    24    1
     5    24    25    1
     6    24    27    1
     7    27    28    1
     8    28    29    1
     9    29    30    1
    10    30    31    1
    11    31    34    1
    12    34    35    1
    13    35    36   ar
    14    36    37   ar
    15    37    38   ar
    16    38    39    1
    17    38    40   ar
    18    40    41    1
    19    40    42   ar
    20    31    32    1
    21    32    33    1
    22     2     5    1
    23     5     6    1
    24     6     7    2
    25     7     8    1
    26     8     9    2
    27     8    10    1
    28    10    11    2
    29    11    12    1
    30    12    16    1
    31    16    17    2
    32    16    18    2
    33    16    19    1
    34    19    20    1
    35    20    21    1
    36    21    22    1
    37    12    13    2
    38    13    14    1
    39    14    15    1
    40    33    28    1
    41    15     5    2
    42    42    35   ar
    43    15    10    1
    44    22    19    1
    45     3     4    1
    46    25    26    1
@<TRIPOS>MOLECULE
*****
 42 46 0 0 0
SMALL
GASTEIGER

@<TRIPOS>ATOM
      1 O         142.1167  141.7063  160.6656 O.2     1  UNL1       -0.2701
      2 C         141.7570  143.1566  160.7977 C.2     1  UNL1        0.2469
      3 N         142.1650  144.1305  159.7323 N.am    1  UNL1       -0.2985
      4 H         141.9289  145.0823  159.8190 H       1  UNL1        0.1498
      5 C         140.9894  143.6329  161.9951 C.2     1  UNL1        0.0665
      6 C         139.9241  144.6768  161.8365 C.2     1  UNL1        0.0931
      7 N         139.1565  145.1531  163.0339 N.am    1  UNL1       -0.1740
      8 C         139.4542  144.5855  164.3900 C.2     1  UNL1        0.2688
      9 O         138.6866  145.0618  165.5875 O.2     1  UNL1       -0.2680
     10 C         140.5196  143.5415  164.5487 C.2     1  UNL1        0.0533
     11 C         140.8173  142.9738  165.9049 C.2     1  UNL1        0.0239
     12 C         141.8826  141.9299  166.0635 C.2     1  UNL1        0.1184
     13 C         142.6502  141.4536  164.8661 C.2     1  UNL1       -0.0015
     14 C         142.3525  142.0212  163.5099 C.3     1  UNL1        0.0540
     15 C         141.2872  143.0652  163.3513 C.2     1  UNL1       -0.0076
     16 S         142.1804  141.3622  167.4197 S.O2    1  UNL1        0.0630
     17 O         142.8505  140.1831  166.7789 O.2     1  UNL1       -0.1528
     18 O         141.5103  142.5413  168.0605 O.2     1  UNL1       -0.1528
     19 N         142.4782  140.7945  168.7758 N.3     1  UNL1       -0.1554
     20 C         143.2172  141.2769  169.9887 C.3     1  UNL1        0.0973
     21 C         142.8993  139.9916  170.6936 C.3     1  UNL1        0.0383
     22 C         142.1603  139.5092  169.4807 C.3     1  UNL1        0.0973
     23 C         142.9326  143.6542  158.5348 C.3     1  UNL1        0.1204
     24 C         142.3907  143.8866  157.1555 C.3     1  UNL1        0.1459
     25 O         142.9181  145.0176  156.3233 O.3     1  UNL1       -0.3813
     26 H         143.5989  145.4959  156.8220 H       1  UNL1        0.2105
     27 C         141.3214  142.9881  156.6085 C.3     1  UNL1        0.1034
     28 N         140.3761  142.2925  157.5425 N.3     1  UNL1       -0.2704
     29 C         140.5358  140.8264  157.8169 C.3     1  UNL1        0.0759
     30 C         139.5905  140.1308  158.7508 C.3     1  UNL1        0.0609
     31 C         138.4853  140.9013  159.4105 C.3     1  UNL1        0.1687
     32 C         138.3255  142.3673  159.1361 C.3     1  UNL1        0.0609
     33 C         139.2710  143.0629  158.2021 C.3     1  UNL1        0.0759
     34 O         137.5399  140.2057  160.3445 O.3     1  UNL1       -0.4790
     35 C         137.8483  140.1381  161.8109 C.ar    1  UNL1        0.1393
     36 C         137.5792  141.3238  162.6893 C.ar    1  UNL1        0.0378
     37 C         137.8876  141.2562  164.1557 C.ar    1  UNL1        0.0154
     38 C         138.4652  140.0030  164.7437 C.ar    1  UNL1        0.0684
     39 CL        138.7736  139.9354  166.2100 Cl      1  UNL1       -0.0814
     40 C         138.7343  138.8173  163.8652 C.ar    1  UNL1        0.0712
     41 CL        139.3119  137.5639  164.4532 Cl      1  UNL1       -0.0813
     42 C         138.4259  138.8848  162.3988 C.ar    1  UNL1        0.0491
@<TRIPOS>BOND
     1     1     2    2
     2     2     3   am
     3     3    23    1
     4    23    24    1
     5    24    25    1
     6    24    27    1
     7    27    28    1
     8    28    29    1
     9    29    30    1
    10    30    31    1
    11    31    34    1
    12    34    35    1
    13    35    36   ar
    14    36    37   ar
    15    37    38   ar
    16    38    39    1
    17    38    40   ar
    18    40    41    1
    19    40    42   ar
    20    31    32    1
    21    32    33    1
    22     2     5    1
    23     5     6    1
    24     6     7    2
    25     7     8    1
    26     8     9    2
    27     8    10    1
    28    10    11    2
    29    11    12    1
    30    12    16    1
    31    16    17    2
    32    16    18    2
    33    16    19    1
    34    19    20    1
    35    20    21    1
    36    21    22    1
    37    12    13    2
    38    13    14    1
    39    14    15    1
    40    33    28    1
    41    15     5    2
    42    42    35   ar
    43    15    10    1
    44    22    19    1
    45     3     4    1
    46    25    26    1
@<TRIPOS>MOLECULE
*****
 42 46 0 0 0
SMALL
GASTEIGER

@<TRIPOS>ATOM
      1 O         138.3493  143.2647  160.7489 O.2     1  UNL1       -0.2701
      2 C         139.6979  143.0978  160.1136 C.2     1  UNL1        0.2469
      3 N         139.8093  142.9034  158.6304 N.am    1  UNL1       -0.2985
      4 H         140.6944  142.7939  158.2135 H       1  UNL1        0.1498
      5 C         140.9349  143.1254  160.9614 C.2     1  UNL1        0.0665
      6 C         142.2159  143.6690  160.4016 C.2     1  UNL1        0.0931
      7 N         143.4530  143.6966  161.2494 N.am    1  UNL1       -0.1740
      8 C         143.4091  143.1806  162.6572 C.2     1  UNL1        0.2688
      9 O         144.6462  143.2081  163.5050 O.2     1  UNL1       -0.2680
     10 C         142.1281  142.6369  163.2171 C.2     1  UNL1        0.0533
     11 C         142.0841  142.1209  164.6248 C.2     1  UNL1        0.0239
     12 C         140.8031  141.5773  165.1847 C.2     1  UNL1        0.1184
     13 C         139.5661  141.5497  164.3368 C.2     1  UNL1       -0.0015
     14 C         139.6100  142.0657  162.9291 C.3     1  UNL1        0.0540
     15 C         140.8910  142.6093  162.3692 C.2     1  UNL1       -0.0076
     16 S         140.7592  141.0612  166.5925 S.O2    1  UNL1        0.0630
     17 O         141.9513  141.9033  166.9383 O.2     1  UNL1       -0.1528
     18 O         139.5670  140.2191  166.2466 O.2     1  UNL1       -0.1528
     19 N         140.7153  140.5452  168.0002 N.3     1  UNL1       -0.1554
     20 C         141.7430  140.1183  169.0059 C.3     1  UNL1        0.0973
     21 C         140.6531  139.8154  169.9911 C.3     1  UNL1        0.0383
     22 C         139.6254  140.2423  168.9853 C.3     1  UNL1        0.0973
     23 C         138.5722  142.8758  157.7826 C.3     1  UNL1        0.1204
     24 C         138.0928  141.5805  157.1974 C.3     1  UNL1        0.1459
     25 O         138.3699  141.2594  155.7586 O.3     1  UNL1       -0.3813
     26 H         138.8647  141.9890  155.3540 H       1  UNL1        0.2105
     27 C         137.3363  140.6063  158.0510 C.3     1  UNL1        0.1034
     28 N         138.0360  139.8824  159.1629 N.3     1  UNL1       -0.2704
     29 C         137.4174  139.8277  160.5283 C.3     1  UNL1        0.0759
     30 C         138.1171  139.1038  161.6402 C.3     1  UNL1        0.0609
     31 C         139.4355  138.4346  161.3867 C.3     1  UNL1        0.1687
     32 C         140.0540  138.4893  160.0212 C.3     1  UNL1        0.0609
     33 C         139.3542  139.2133  158.9093 C.3     1  UNL1        0.0759
     34 O         140.1352  137.7107  162.4985 O.3     1  UNL1       -0.4790
     35 C         141.4525  138.2144  163.0094 C.ar    1  UNL1        0.1393
     36 C         142.3973  138.9183  162.0810 C.ar    1  UNL1        0.0378
     37 C         143.7146  139.4221  162.5919 C.ar    1  UNL1        0.0154
     38 C         144.0870  139.2220  164.0310 C.ar    1  UNL1        0.0684
     39 CL        145.4043  139.7258  164.5418 Cl      1  UNL1       -0.0814
     40 C         143.1422  138.5181  164.9593 C.ar    1  UNL1        0.0712
     41 CL        143.5147  138.3180  166.3986 Cl      1  UNL1       -0.0813
     42 C         141.8249  138.0143  164.4485 C.ar    1  UNL1        0.0491
@<TRIPOS>BOND
     1     1     2    2
     2     2     3   am
     3     3    23    1
     4    23    24    1
     5    24    25    1
     6    24    27    1
     7    27    28    1
     8    28    29    1
     9    29    30    1
    10    30    31    1
    11    31    34    1
    12    34    35    1
    13    35    36   ar
    14    36    37   ar
    15    37    38   ar
    16    38    39    1
    17    38    40   ar
    18    40    41    1
    19    40    42   ar
    20    31    32    1
    21    32    33    1
    22     2     5    1
    23     5     6    1
    24     6     7    2
    25     7     8    1
    26     8     9    2
    27     8    10    1
    28    10    11    2
    29    11    12    1
    30    12    16    1
    31    16    17    2
    32    16    18    2
    33    16    19    1
    34    19    20    1
    35    20    21    1
    36    21    22    1
    37    12    13    2
    38    13    14    1
    39    14    15    1
    40    33    28    1
    41    15     5    2
    42    42    35   ar
    43    15    10    1
    44    22    19    1
    45     3     4    1
    46    25    26    1
@<TRIPOS>MOLECULE
*****
 42 46 0 0 0
SMALL
GASTEIGER

@<TRIPOS>ATOM
      1 O         139.9420  143.6691  161.4900 O.2     1  UNL1       -0.2701
      2 C         141.3512  144.0858  161.1888 C.2     1  UNL1        0.2469
      3 N         141.6160  145.1525  160.1682 N.am    1  UNL1       -0.2985
      4 H         142.5409  145.4260  159.9705 H       1  UNL1        0.1498
      5 C         142.4956  143.4356  161.9084 C.2     1  UNL1        0.0665
      6 C         143.7600  143.1124  161.1690 C.2     1  UNL1        0.0931
      7 N         144.9043  142.4623  161.8886 N.am    1  UNL1       -0.1740
      8 C         144.7843  142.1352  163.3475 C.2     1  UNL1        0.2688
      9 O         145.9286  141.4851  164.0671 O.2     1  UNL1       -0.2680
     10 C         143.5198  142.4584  164.0870 C.2     1  UNL1        0.0533
     11 C         143.3997  142.1314  165.5459 C.2     1  UNL1        0.0239
     12 C         142.1353  142.4545  166.2853 C.2     1  UNL1        0.1184
     13 C         140.9909  143.1047  165.5658 C.2     1  UNL1       -0.0015
     14 C         141.1110  143.4317  164.1068 C.3     1  UNL1        0.0540
     15 C         142.3754  143.1086  163.3674 C.2     1  UNL1       -0.0076
     16 S         142.0151  142.1275  167.7444 S.O2    1  UNL1        0.0630
     17 O         143.4469  142.5240  167.9511 O.2     1  UNL1       -0.1528
     18 O         140.5834  141.7310  167.5377 O.2     1  UNL1       -0.1528
     19 N         141.8951  141.8005  169.2033 N.3     1  UNL1       -0.1554
     20 C         142.7750  141.1293  170.2158 C.3     1  UNL1        0.0973
     21 C         141.7252  141.3381  171.2667 C.3     1  UNL1        0.0383
     22 C         140.8453  142.0093  170.2542 C.3     1  UNL1        0.0973
     23 C         140.4717  145.8027  159.4486 C.3     1  UNL1        0.1204
     24 C         140.3418  145.6582  157.9612 C.3     1  UNL1        0.1459
     25 O         139.9439  146.8382  157.1250 O.3     1  UNL1       -0.3813
     26 H         139.8096  147.6096  157.6975 H       1  UNL1        0.2105
     27 C         140.6097  144.3337  157.3101 C.3     1  UNL1        0.1034
     28 N         140.1853  143.0650  157.9884 N.3     1  UNL1       -0.2704
     29 C         141.2153  142.0601  158.4118 C.3     1  UNL1        0.0759
     30 C         140.7908  140.7914  159.0901 C.3     1  UNL1        0.0609
     31 C         139.3363  140.5275  159.3451 C.3     1  UNL1        0.1687
     32 C         138.3064  141.5325  158.9217 C.3     1  UNL1        0.0609
     33 C         138.7309  142.8013  158.2434 C.3     1  UNL1        0.0759
     34 O         138.9119  139.2588  160.0234 O.3     1  UNL1       -0.4790
     35 C         138.7968  139.2098  161.5182 C.ar    1  UNL1        0.1393
     36 C         139.0646  137.9277  162.2493 C.ar    1  UNL1        0.0378
     37 C         138.9495  137.8787  163.7441 C.ar    1  UNL1        0.0154
     38 C         138.5668  139.1117  164.5078 C.ar    1  UNL1        0.0684
     39 CL        138.4517  139.0626  166.0025 Cl      1  UNL1       -0.0814
     40 C         138.2991  140.3937  163.7766 C.ar    1  UNL1        0.0712
     41 CL        137.9163  141.6268  164.5402 Cl      1  UNL1       -0.0813
     42 C         138.4141  140.4428  162.2818 C.ar    1  UNL1        0.0491
@<TRIPOS>BOND
     1     1     2    2
     2     2     3   am
     3     3    23    1
     4    23    24    1
     5    24    25    1
     6    24    27    1
     7    27    28    1
     8    28    29    1
     9    29    30    1
    10    30    31    1
    11    31    34    1
    12    34    35    1
    13    35    36   ar
    14    36    37   ar
    15    37    38   ar
    16    38    39    1
    17    38    40   ar
    18    40    41    1
    19    40    42   ar
    20    31    32    1
    21    32    33    1
    22     2     5    1
    23     5     6    1
    24     6     7    2
    25     7     8    1
    26     8     9    2
    27     8    10    1
    28    10    11    2
    29    11    12    1
    30    12    16    1
    31    16    17    2
    32    16    18    2
    33    16    19    1
    34    19    20    1
    35    20    21    1
    36    21    22    1
    37    12    13    2
    38    13    14    1
    39    14    15    1
    40    33    28    1
    41    15     5    2
    42    42    35   ar
    43    15    10    1
    44    22    19    1
    45     3     4    1
    46    25    26    1
@<TRIPOS>MOLECULE
*****
 42 46 0 0 0
SMALL
GASTEIGER

@<TRIPOS>ATOM
      1 O         141.8613  144.9654  160.1368 O.2     1  UNL1       -0.2701
      2 C         142.3357  143.5466  160.0256 C.2     1  UNL1        0.2469
      3 N         141.9436  142.7155  158.8401 N.am    1  UNL1       -0.2985
      4 H         142.2549  141.7843  158.7672 H       1  UNL1        0.1498
      5 C         143.2020  142.9591  161.1000 C.2     1  UNL1        0.0665
      6 C         144.5710  142.4470  160.7631 C.2     1  UNL1        0.0931
      7 N         145.4374  141.8595  161.8375 N.am    1  UNL1       -0.1740
      8 C         144.9348  141.7841  163.2487 C.2     1  UNL1        0.2688
      9 O         145.8011  141.1966  164.3231 O.2     1  UNL1       -0.2680
     10 C         143.5657  142.2962  163.5857 C.2     1  UNL1        0.0533
     11 C         143.0631  142.2209  164.9969 C.2     1  UNL1        0.0239
     12 C         141.6941  142.7330  165.3338 C.2     1  UNL1        0.1184
     13 C         140.8277  143.3205  164.2594 C.2     1  UNL1       -0.0015
     14 C         141.3303  143.3959  162.8482 C.3     1  UNL1        0.0540
     15 C         142.6993  142.8838  162.5113 C.2     1  UNL1       -0.0076
     16 S         141.1914  142.6576  166.7451 S.O2    1  UNL1        0.0630
     17 O         142.5807  142.3570  167.2239 O.2     1  UNL1       -0.1528
     18 O         139.8020  142.9582  166.2663 O.2     1  UNL1       -0.1528
     19 N         140.6887  142.5823  168.1563 N.3     1  UNL1       -0.1554
     20 C         140.3235  143.5883  169.2073 C.3     1  UNL1        0.0973
     21 C         139.9779  142.4757  170.1522 C.3     1  UNL1        0.0383
     22 C         140.3432  141.4697  169.1012 C.3     1  UNL1        0.0973
     23 C         141.0772  143.3030  157.7658 C.3     1  UNL1        0.1204
     24 C         139.7414  143.8885  158.1161 C.3     1  UNL1        0.1459
     25 O         139.6028  145.3670  158.3281 O.3     1  UNL1       -0.3813
     26 H         140.4646  145.7939  158.2018 H       1  UNL1        0.2105
     27 C         138.5441  142.9956  158.2544 C.3     1  UNL1        0.1034
     28 N         138.4774  141.9983  159.3728 N.3     1  UNL1       -0.2704
     29 C         138.3616  142.4696  160.7921 C.3     1  UNL1        0.0759
     30 C         138.2950  141.4723  161.9105 C.3     1  UNL1        0.0609
     31 C         138.3442  140.0036  161.6097 C.3     1  UNL1        0.1687
     32 C         138.4600  139.5322  160.1904 C.3     1  UNL1        0.0609
     33 C         138.5266  140.5296  159.0719 C.3     1  UNL1        0.0759
     34 O         138.2776  139.0063  162.7281 O.3     1  UNL1       -0.4790
     35 C         139.3254  139.0118  163.8013 C.ar    1  UNL1        0.1393
     36 C         138.9294  139.2040  165.2353 C.ar    1  UNL1        0.0378
     37 C         139.9773  139.2096  166.3085 C.ar    1  UNL1        0.0154
     38 C         141.4212  139.0229  165.9479 C.ar    1  UNL1        0.0684
     39 CL        142.4691  139.0285  167.0212 Cl      1  UNL1       -0.0814
     40 C         141.8173  138.8307  164.5140 C.ar    1  UNL1        0.0712
     41 CL        143.2613  138.6440  164.1533 Cl      1  UNL1       -0.0813
     42 C         140.7694  138.8251  163.4407 C.ar    1  UNL1        0.0491
@<TRIPOS>BOND
     1     1     2    2
     2     2     3   am
     3     3    23    1
     4    23    24    1
     5    24    25    1
     6    24    27    1
     7    27    28    1
     8    28    29    1
     9    29    30    1
    10    30    31    1
    11    31    34    1
    12    34    35    1
    13    35    36   ar
    14    36    37   ar
    15    37    38   ar
    16    38    39    1
    17    38    40   ar
    18    40    41    1
    19    40    42   ar
    20    31    32    1
    21    32    33    1
    22     2     5    1
    23     5     6    1
    24     6     7    2
    25     7     8    1
    26     8     9    2
    27     8    10    1
    28    10    11    2
    29    11    12    1
    30    12    16    1
    31    16    17    2
    32    16    18    2
    33    16    19    1
    34    19    20    1
    35    20    21    1
    36    21    22    1
    37    12    13    2
    38    13    14    1
    39    14    15    1
    40    33    28    1
    41    15     5    2
    42    42    35   ar
    43    15    10    1
    44    22    19    1
    45     3     4    1
    46    25    26    1
@<TRIPOS>MOLECULE
*****
 42 46 0 0 0
SMALL
GASTEIGER

@<TRIPOS>ATOM
      1 O         144.3725  137.6738  161.4540 O.2     1  UNL1       -0.2701
      2 C         143.7601  139.0291  161.2585 C.2     1  UNL1        0.2469
      3 N         142.8676  139.2861  160.0807 N.am    1  UNL1       -0.2985
      4 H         142.4657  140.1756  159.9524 H       1  UNL1        0.1498
      5 C         144.0402  140.1274  162.2411 C.2     1  UNL1        0.0665
      6 C         144.9568  141.2538  161.8657 C.2     1  UNL1        0.0931
      7 N         145.2368  142.3521  162.8482 N.am    1  UNL1       -0.1740
      8 C         144.6003  142.3240  164.2061 C.2     1  UNL1        0.2688
      9 O         144.8803  143.4222  165.1887 O.2     1  UNL1       -0.2680
     10 C         143.6836  141.1975  164.5816 C.2     1  UNL1        0.0533
     11 C         143.0470  141.1694  165.9395 C.2     1  UNL1        0.0239
     12 C         142.1304  140.0429  166.3149 C.2     1  UNL1        0.1184
     13 C         141.8504  138.9447  165.3323 C.2     1  UNL1       -0.0015
     14 C         142.4869  138.9728  163.9744 C.3     1  UNL1        0.0540
     15 C         143.4035  140.0992  163.5990 C.2     1  UNL1       -0.0076
     16 S         141.4938  140.0148  167.6728 S.O2    1  UNL1        0.0630
     17 O         142.8135  140.3565  168.2985 O.2     1  UNL1       -0.1528
     18 O         140.1741  139.6730  167.0471 O.2     1  UNL1       -0.1528
     19 N         140.8573  139.9866  169.0308 N.3     1  UNL1       -0.1554
     20 C         139.5329  140.4141  169.5904 C.3     1  UNL1        0.0973
     21 C         139.9571  139.9467  170.9512 C.3     1  UNL1        0.0383
     22 C         141.2815  139.5193  170.3915 C.3     1  UNL1        0.0973
     23 C         142.5876  138.1878  159.0981 C.3     1  UNL1        0.1204
     24 C         142.4260  138.5078  157.6415 C.3     1  UNL1        0.1459
     25 O         143.4752  138.0797  156.6588 O.3     1  UNL1       -0.3813
     26 H         144.1844  137.6114  157.1264 H       1  UNL1        0.2105
     27 C         141.2153  139.2559  157.1678 C.3     1  UNL1        0.1034
     28 N         140.4155  140.0776  158.1348 N.3     1  UNL1       -0.2704
     29 C         140.7878  141.5080  158.3907 C.3     1  UNL1        0.0759
     30 C         139.9880  142.3297  159.3576 C.3     1  UNL1        0.0609
     31 C         138.8158  141.7210  160.0688 C.3     1  UNL1        0.1687
     32 C         138.4435  140.2907  159.8129 C.3     1  UNL1        0.0609
     33 C         139.2434  139.4690  158.8459 C.3     1  UNL1        0.0759
     34 O         138.0160  142.5427  161.0358 O.3     1  UNL1       -0.4790
     35 C         138.5008  142.7275  162.4432 C.ar    1  UNL1        0.1393
     36 C         139.5761  141.8356  162.9892 C.ar    1  UNL1        0.0378
     37 C         140.0609  142.0203  164.3966 C.ar    1  UNL1        0.0154
     38 C         139.4703  143.0969  165.2581 C.ar    1  UNL1        0.0684
     39 CL        139.9551  143.2816  166.6655 Cl      1  UNL1       -0.0814
     40 C         138.3950  143.9888  164.7121 C.ar    1  UNL1        0.0712
     41 CL        137.8044  145.0654  165.5735 Cl      1  UNL1       -0.0813
     42 C         137.9102  143.8040  163.3046 C.ar    1  UNL1        0.0491
@<TRIPOS>BOND
     1     1     2    2
     2     2     3   am
     3     3    23    1
     4    23    24    1
     5    24    25    1
     6    24    27    1
     7    27    28    1
     8    28    29    1
     9    29    30    1
    10    30    31    1
    11    31    34    1
    12    34    35    1
    13    35    36   ar
    14    36    37   ar
    15    37    38   ar
    16    38    39    1
    17    38    40   ar
    18    40    41    1
    19    40    42   ar
    20    31    32    1
    21    32    33    1
    22     2     5    1
    23     5     6    1
    24     6     7    2
    25     7     8    1
    26     8     9    2
    27     8    10    1
    28    10    11    2
    29    11    12    1
    30    12    16    1
    31    16    17    2
    32    16    18    2
    33    16    19    1
    34    19    20    1
    35    20    21    1
    36    21    22    1
    37    12    13    2
    38    13    14    1
    39    14    15    1
    40    33    28    1
    41    15     5    2
    42    42    35   ar
    43    15    10    1
    44    22    19    1
    45     3     4    1
    46    25    26    1
@<TRIPOS>MOLECULE
*****
 42 46 0 0 0
SMALL
GASTEIGER

@<TRIPOS>ATOM
      1 O         138.4083  144.9847  162.1760 O.2     1  UNL1       -0.2701
      2 C         139.2852  143.8040  161.8809 C.2     1  UNL1        0.2469
      3 N         140.4396  143.9453  160.9335 N.am    1  UNL1       -0.2985
      4 H         141.0151  143.1704  160.7399 H       1  UNL1        0.1498
      5 C         139.0077  142.4821  162.5331 C.2     1  UNL1        0.0665
      6 C         138.0684  141.5085  161.8851 C.2     1  UNL1        0.0931
      7 N         137.7909  140.1866  162.5374 N.am    1  UNL1       -0.1740
      8 C         138.4527  139.8382  163.8376 C.2     1  UNL1        0.2688
      9 O         138.1751  138.5162  164.4898 O.2     1  UNL1       -0.2680
     10 C         139.3920  140.8117  164.4856 C.2     1  UNL1        0.0533
     11 C         140.0538  140.4633  165.7858 C.2     1  UNL1        0.0239
     12 C         140.9931  141.4368  166.4338 C.2     1  UNL1        0.1184
     13 C         141.2706  142.7587  165.7816 C.2     1  UNL1       -0.0015
     14 C         140.6088  143.1072  164.4813 C.3     1  UNL1        0.0540
     15 C         139.6695  142.1337  163.8334 C.2     1  UNL1       -0.0076
     16 S         141.6549  141.0884  167.7341 S.O2    1  UNL1        0.0630
     17 O         140.5281  140.1525  168.0568 O.2     1  UNL1       -0.1528
     18 O         142.7818  142.0243  167.4114 O.2     1  UNL1       -0.1528
     19 N         142.3167  140.7400  169.0343 N.3     1  UNL1       -0.1554
     20 C         142.2773  139.5622  169.9623 C.3     1  UNL1        0.0973
     21 C         143.2526  140.2472  170.8731 C.3     1  UNL1        0.0383
     22 C         143.2920  141.4250  169.9451 C.3     1  UNL1        0.0973
     23 C         140.7171  145.2673  160.2813 C.3     1  UNL1        0.1204
     24 C         140.9626  145.3374  158.8031 C.3     1  UNL1        0.1459
     25 O         140.0883  146.1955  157.9376 O.3     1  UNL1       -0.3813
     26 H         139.4192  146.6331  158.4869 H       1  UNL1        0.2105
     27 C         142.0824  144.5495  158.1906 C.3     1  UNL1        0.1034
     28 N         142.4855  143.2326  158.7849 N.3     1  UNL1       -0.2704
     29 C         141.6970  141.9956  158.4717 C.3     1  UNL1        0.0759
     30 C         142.1001  140.6787  159.0660 C.3     1  UNL1        0.0609
     31 C         143.2918  140.5987  159.9736 C.3     1  UNL1        0.1687
     32 C         144.0803  141.8357  160.2868 C.3     1  UNL1        0.0609
     33 C         143.6771  143.1527  159.6925 C.3     1  UNL1        0.0759
     34 O         143.6948  139.2818  160.5679 O.3     1  UNL1       -0.4790
     35 C         143.5914  139.0640  162.0484 C.ar    1  UNL1        0.1393
     36 C         144.6060  139.6748  162.9690 C.ar    1  UNL1        0.0378
     37 C         144.5026  139.4570  164.4495 C.ar    1  UNL1        0.0154
     38 C         143.3846  138.6284  165.0094 C.ar    1  UNL1        0.0684
     39 CL        143.2812  138.4106  166.4899 Cl      1  UNL1       -0.0814
     40 C         142.3700  138.0176  164.0888 C.ar    1  UNL1        0.0712
     41 CL        141.2520  137.1890  164.6486 Cl      1  UNL1       -0.0813
     42 C         142.4734  138.2355  162.6083 C.ar    1  UNL1        0.0491
@<TRIPOS>BOND
     1     1     2    2
     2     2     3   am
     3     3    23    1
     4    23    24    1
     5    24    25    1
     6    24    27    1
     7    27    28    1
     8    28    29    1
     9    29    30    1
    10    30    31    1
    11    31    34    1
    12    34    35    1
    13    35    36   ar
    14    36    37   ar
    15    37    38   ar
    16    38    39    1
    17    38    40   ar
    18    40    41    1
    19    40    42   ar
    20    31    32    1
    21    32    33    1
    22     2     5    1
    23     5     6    1
    24     6     7    2
    25     7     8    1
    26     8     9    2
    27     8    10    1
    28    10    11    2
    29    11    12    1
    30    12    16    1
    31    16    17    2
    32    16    18    2
    33    16    19    1
    34    19    20    1
    35    20    21    1
    36    21    22    1
    37    12    13    2
    38    13    14    1
    39    14    15    1
    40    33    28    1
    41    15     5    2
    42    42    35   ar
    43    15    10    1
    44    22    19    1
    45     3     4    1
    46    25    26    1
@<TRIPOS>MOLECULE
*****
 42 46 0 0 0
SMALL
GASTEIGER

@<TRIPOS>ATOM
      1 O         139.6691  142.9103  165.7379 O.2     1  UNL1       -0.2701
      2 C         141.1040  142.7383  166.1398 C.2     1  UNL1        0.2469
      3 N         141.4811  142.7354  167.5916 N.am    1  UNL1       -0.2985
      4 H         142.4229  142.6225  167.8553 H       1  UNL1        0.1498
      5 C         142.1619  142.5692  165.0898 C.2     1  UNL1        0.0665
      6 C         143.4193  141.8153  165.4067 C.2     1  UNL1        0.0931
      7 N         144.4771  141.6462  164.3567 N.am    1  UNL1       -0.1740
      8 C         144.2775  142.2309  162.9899 C.2     1  UNL1        0.2688
      9 O         145.3353  142.0618  161.9399 O.2     1  UNL1       -0.2680
     10 C         143.0199  142.9848  162.6730 C.2     1  UNL1        0.0533
     11 C         142.8203  143.5695  161.3062 C.2     1  UNL1        0.0239
     12 C         141.5628  144.3234  160.9894 C.2     1  UNL1        0.1184
     13 C         140.5050  144.4925  162.0393 C.2     1  UNL1       -0.0015
     14 C         140.7047  143.9078  163.4061 C.3     1  UNL1        0.0540
     15 C         141.9621  143.1539  163.7230 C.2     1  UNL1       -0.0076
     16 S         141.3631  144.9082  159.6225 S.O2    1  UNL1        0.0630
     17 O         140.0708  145.5216  160.0738 O.2     1  UNL1       -0.1528
     18 O         142.6553  144.2947  159.1712 O.2     1  UNL1       -0.1528
     19 N         141.1633  145.4929  158.2557 N.3     1  UNL1       -0.1554
     20 C         140.0286  146.1726  157.5484 C.3     1  UNL1        0.0973
     21 C         140.8808  146.3199  156.3228 C.3     1  UNL1        0.0383
     22 C         142.0156  145.6402  157.0301 C.3     1  UNL1        0.0973
     23 C         140.4233  142.9045  168.6416 C.3     1  UNL1        0.1204
     24 C         140.0350  141.7438  169.5088 C.3     1  UNL1        0.1459
     25 O         139.2091  141.9708  170.7402 O.3     1  UNL1       -0.3813
     26 H         139.0137  142.9168  170.8285 H       1  UNL1        0.2105
     27 C         140.4727  140.3561  169.1446 C.3     1  UNL1        0.1034
     28 N         140.0322  139.7471  167.8466 N.3     1  UNL1       -0.2704
     29 C         141.0489  139.3849  166.8048 C.3     1  UNL1        0.0759
     30 C         140.6084  138.7759  165.5067 C.3     1  UNL1        0.0609
     31 C         139.1512  138.5291  165.2503 C.3     1  UNL1        0.1687
     32 C         138.1345  138.8913  166.2920 C.3     1  UNL1        0.0609
     33 C         138.5751  139.5003  167.5902 C.3     1  UNL1        0.0759
     34 O         138.7107  137.9202  163.9522 O.3     1  UNL1       -0.4790
     35 C         138.6512  138.7609  162.7114 C.ar    1  UNL1        0.1393
     36 C         138.9905  138.1584  161.3803 C.ar    1  UNL1        0.0378
     37 C         138.9309  138.9991  160.1394 C.ar    1  UNL1        0.0154
     38 C         138.5321  140.4423  160.2297 C.ar    1  UNL1        0.0684
     39 CL        138.4726  141.2830  158.9888 Cl      1  UNL1       -0.0814
     40 C         138.1929  141.0447  161.5608 C.ar    1  UNL1        0.0712
     41 CL        137.7941  142.4880  161.6511 Cl      1  UNL1       -0.0813
     42 C         138.2524  140.2040  162.8016 C.ar    1  UNL1        0.0491
@<TRIPOS>BOND
     1     1     2    2
     2     2     3   am
     3     3    23    1
     4    23    24    1
     5    24    25    1
     6    24    27    1
     7    27    28    1
     8    28    29    1
     9    29    30    1
    10    30    31    1
    11    31    34    1
    12    34    35    1
    13    35    36   ar
    14    36    37   ar
    15    37    38   ar
    16    38    39    1
    17    38    40   ar
    18    40    41    1
    19    40    42   ar
    20    31    32    1
    21    32    33    1
    22     2     5    1
    23     5     6    1
    24     6     7    2
    25     7     8    1
    26     8     9    2
    27     8    10    1
    28    10    11    2
    29    11    12    1
    30    12    16    1
    31    16    17    2
    32    16    18    2
    33    16    19    1
    34    19    20    1
    35    20    21    1
    36    21    22    1
    37    12    13    2
    38    13    14    1
    39    14    15    1
    40    33    28    1
    41    15     5    2
    42    42    35   ar
    43    15    10    1
    44    22    19    1
    45     3     4    1
    46    25    26    1
