@<TRIPOS>MOLECULE
*****
 37 41 0 0 0
SMALL
GASTEIGER

@<TRIPOS>ATOM
      1 C         141.0468  139.3536  159.8043 C.ar    1  UNL1        0.1233
      2 C         141.1963  138.9244  161.2338 C.ar    1  UNL1        0.1180
      3 N         141.0166  140.1342  162.1022 N.ar    1  UNL1       -0.2233
      4 N         140.7561  141.3111  161.2094 N.ar    1  UNL1       -0.0634
      5 N         140.7748  140.8287  159.7892 N.ar    1  UNL1       -0.1287
      6 C         141.0853  140.1622  163.6004 C.3     1  UNL1        0.1834
      7 C         142.4192  140.5230  164.1840 C.3     1  UNL1        0.0386
      8 C         142.8082  140.6364  165.6283 C.3     1  UNL1        0.0302
      9 C         141.9595  140.4170  166.8455 C.ar    1  UNL1       -0.0062
     10 C         142.7427  140.6347  168.1061 C.ar    1  UNL1        0.0266
     11 C         142.0786  140.4655  169.4403 C.ar    1  UNL1        0.1399
     12 F         142.8617  140.6832  170.7010 F       1  UNL1       -0.2042
     13 C         140.6312  140.0785  169.5140 C.ar    1  UNL1        0.0309
     14 C         139.8480  139.8607  168.2534 C.ar    1  UNL1        0.0169
     15 C         140.5122  140.0300  166.9191 C.ar    1  UNL1        0.0503
     16 N         139.5561  139.7668  165.7937 N.am    1  UNL1       -0.2492
     17 C         139.8111  139.8257  164.3167 C.2     1  UNL1        0.2520
     18 O         138.7488  139.5348  163.2983 O.2     1  UNL1       -0.2724
     19 C         138.1603  139.3958  166.1989 C.3     1  UNL1        0.2016
     20 C         137.8382  137.9779  166.5676 C.3     1  UNL1        0.4160
     21 F         137.5163  136.5600  166.9362 F       1  UNL1       -0.1682
     22 F         138.7113  137.3192  165.5410 F       1  UNL1       -0.1682
     23 F         136.9190  138.4674  167.6472 F       1  UNL1       -0.1682
     24 C         140.0212  137.2016  156.6315 C.ar    1  UNL1        0.1547
     25 C         139.9168  138.0912  157.8346 C.ar    1  UNL1        0.0400
     26 C         141.1512  138.4639  158.6011 C.ar    1  UNL1        0.0241
     27 C         142.4898  137.9470  158.1644 C.ar    1  UNL1        0.0033
     28 C         142.5942  137.0573  156.9613 C.ar    1  UNL1        0.0207
     29 C         141.3599  136.6846  156.1949 C.ar    1  UNL1        0.0994
     30 N         141.4643  135.7949  154.9916 N.ar    1  UNL1       -0.2839
     31 C         141.7175  136.2433  153.5828 C.ar    1  UNL1        0.1826
     32 N         141.7435  135.0261  152.7066 N.ar    1  UNL1       -0.2280
     33 C         141.5064  133.8255  153.5738 C.ar    1  UNL1        0.0786
     34 C         141.4514  132.4000  153.1103 C.3     1  UNL1        0.0538
     35 C         141.3338  134.3006  154.9861 C.ar    1  UNL1        0.0963
     36 C         138.3450  137.6662  154.7017 C.3     1  UNL1        0.2525
     37 O         138.7869  136.8288  155.8650 O.3     1  UNL1       -0.4700
@<TRIPOS>BOND
     1    36    37    1
     2    37    24    1
     3    24    25   ar
     4    25    26   ar
     5    26     1    1
     6     1     2   ar
     7     2     3   ar
     8     3     6    1
     9     6     7    1
    10     7     8    1
    11     8     9    1
    12     9    10   ar
    13    10    11   ar
    14    11    12    1
    15    11    13   ar
    16    13    14   ar
    17    14    15   ar
    18    15    16    1
    19    16    19    1
    20    19    20    1
    21    20    21    1
    22    20    22    1
    23    20    23    1
    24    16    17   am
    25    17    18    2
    26     3     4   ar
    27     4     5   ar
    28    26    27   ar
    29    27    28   ar
    30    28    29   ar
    31    29    30    1
    32    30    31   ar
    33    31    32   ar
    34    32    33   ar
    35    33    34    1
    36    33    35   ar
    37    29    24   ar
    38    35    30   ar
    39     5     1   ar
    40    17     6    1
    41    15     9   ar
@<TRIPOS>MOLECULE
*****
 37 41 0 0 0
SMALL
GASTEIGER

@<TRIPOS>ATOM
      1 C         141.1453  142.4930  160.3939 C.ar    1  UNL1        0.1233
      2 C         140.9522  142.6887  161.8685 C.ar    1  UNL1        0.1180
      3 N         141.3442  141.4168  162.5602 N.ar    1  UNL1       -0.2233
      4 N         141.7797  140.4350  161.5131 N.ar    1  UNL1       -0.0634
      5 N         141.6567  141.1001  160.1743 N.ar    1  UNL1       -0.1287
      6 C         141.3074  141.1700  164.0393 C.3     1  UNL1        0.1834
      7 C         142.5640  141.5053  164.7866 C.3     1  UNL1        0.0386
      8 C         142.8423  141.3740  166.2547 C.3     1  UNL1        0.0302
      9 C         141.9328  140.8749  167.3381 C.ar    1  UNL1       -0.0062
     10 C         142.6072  140.9067  168.6776 C.ar    1  UNL1        0.0266
     11 C         141.8690  140.4474  169.8999 C.ar    1  UNL1        0.1399
     12 F         142.5433  140.4792  171.2395 F       1  UNL1       -0.2042
     13 C         140.4565  139.9565  169.7828 C.ar    1  UNL1        0.0309
     14 C         139.7821  139.9247  168.4433 C.ar    1  UNL1        0.0169
     15 C         140.5203  140.3839  167.2210 C.ar    1  UNL1        0.0503
     16 N         139.6685  140.2707  165.9915 N.am    1  UNL1       -0.2492
     17 C         140.0187  140.6206  164.5755 C.2     1  UNL1        0.2520
     18 O         139.0563  140.4531  163.4373 O.2     1  UNL1       -0.2724
     19 C         138.2832  139.7372  166.2064 C.3     1  UNL1        0.2016
     20 C         138.0646  138.2622  166.3703 C.3     1  UNL1        0.4160
     21 F         137.8460  136.7873  166.5343 F       1  UNL1       -0.1682
     22 F         136.9953  138.3512  167.4185 F       1  UNL1       -0.1682
     23 F         139.1152  137.9914  165.3344 F       1  UNL1       -0.1682
     24 C         139.5479  144.2706  157.2257 C.ar    1  UNL1        0.1547
     25 C         139.8186  143.2522  158.2931 C.ar    1  UNL1        0.0400
     26 C         140.8745  143.5114  159.3265 C.ar    1  UNL1        0.0241
     27 C         141.6597  144.7891  159.2924 C.ar    1  UNL1        0.0033
     28 C         141.3889  145.8075  158.2249 C.ar    1  UNL1        0.0207
     29 C         140.3330  145.5483  157.1916 C.ar    1  UNL1        0.0994
     30 N         140.0623  146.5668  156.1241 N.ar    1  UNL1       -0.2839
     31 C         139.0318  147.6551  156.1848 C.ar    1  UNL1        0.1826
     32 N         139.1072  148.4366  154.9067 N.ar    1  UNL1       -0.2280
     33 C         140.1842  147.8313  154.0561 C.ar    1  UNL1        0.0786
     34 C         140.5983  148.2995  152.6925 C.3     1  UNL1        0.0538
     35 C         140.7745  146.6757  154.8084 C.ar    1  UNL1        0.0963
     36 C         137.4941  142.9108  156.3993 C.3     1  UNL1        0.2525
     37 O         138.4919  144.0114  156.1923 O.3     1  UNL1       -0.4700
@<TRIPOS>BOND
     1    36    37    1
     2    37    24    1
     3    24    25   ar
     4    25    26   ar
     5    26     1    1
     6     1     2   ar
     7     2     3   ar
     8     3     6    1
     9     6     7    1
    10     7     8    1
    11     8     9    1
    12     9    10   ar
    13    10    11   ar
    14    11    12    1
    15    11    13   ar
    16    13    14   ar
    17    14    15   ar
    18    15    16    1
    19    16    19    1
    20    19    20    1
    21    20    21    1
    22    20    22    1
    23    20    23    1
    24    16    17   am
    25    17    18    2
    26     3     4   ar
    27     4     5   ar
    28    26    27   ar
    29    27    28   ar
    30    28    29   ar
    31    29    30    1
    32    30    31   ar
    33    31    32   ar
    34    32    33   ar
    35    33    34    1
    36    33    35   ar
    37    29    24   ar
    38    35    30   ar
    39     5     1   ar
    40    17     6    1
    41    15     9   ar
@<TRIPOS>MOLECULE
*****
 37 41 0 0 0
SMALL
GASTEIGER

@<TRIPOS>ATOM
      1 C         142.7002  137.7276  157.6512 C.ar    1  UNL1        0.1233
      2 C         141.9204  138.2143  158.8366 C.ar    1  UNL1        0.1180
      3 N         142.4926  139.5355  159.2572 N.ar    1  UNL1       -0.2233
      4 N         143.6261  139.8653  158.3318 N.ar    1  UNL1       -0.0634
      5 N         143.7544  138.7480  157.3392 N.ar    1  UNL1       -0.1287
      6 C         142.0152  140.3788  160.4022 C.3     1  UNL1        0.1834
      7 C         140.8259  141.2478  160.1188 C.3     1  UNL1        0.0386
      8 C         140.1180  142.1942  161.0424 C.3     1  UNL1        0.0302
      9 C         140.4243  142.5054  162.4775 C.ar    1  UNL1       -0.0062
     10 C         139.4659  143.5149  163.0361 C.ar    1  UNL1        0.0266
     11 C         139.5975  143.9659  164.4606 C.ar    1  UNL1        0.1399
     12 F         138.6390  144.9755  165.0193 F       1  UNL1       -0.2042
     13 C         140.6876  143.4074  165.3264 C.ar    1  UNL1        0.0309
     14 C         141.6461  142.3979  164.7678 C.ar    1  UNL1        0.0169
     15 C         141.5145  141.9469  163.3433 C.ar    1  UNL1        0.0503
     16 N         142.5674  140.9393  162.9880 N.am    1  UNL1       -0.2492
     17 C         142.7903  140.2414  161.6791 C.2     1  UNL1        0.2520
     18 O         143.8943  139.2482  161.4675 O.2     1  UNL1       -0.2724
     19 C         143.5239  140.5825  164.0869 C.3     1  UNL1        0.2016
     20 C         144.9607  141.0040  163.9970 C.3     1  UNL1        0.4160
     21 F         146.3974  141.4257  163.9070 F       1  UNL1       -0.1682
     22 F         144.7080  142.4470  163.6743 F       1  UNL1       -0.1682
     23 F         145.3917  139.6020  164.3110 F       1  UNL1       -0.1682
     24 C         143.0773  133.9599  156.4630 C.ar    1  UNL1        0.1547
     25 C         143.3108  135.2418  157.2059 C.ar    1  UNL1        0.0400
     26 C         142.4667  136.4455  156.9083 C.ar    1  UNL1        0.0241
     27 C         141.3891  136.3672  155.8678 C.ar    1  UNL1        0.0033
     28 C         141.1557  135.0852  155.1250 C.ar    1  UNL1        0.0207
     29 C         141.9998  133.8816  155.4226 C.ar    1  UNL1        0.0994
     30 N         141.7662  132.5995  154.6796 N.ar    1  UNL1       -0.2839
     31 C         142.5443  132.1140  153.4926 C.ar    1  UNL1        0.1826
     32 N         141.9726  130.7924  153.0727 N.ar    1  UNL1       -0.2280
     33 C         140.8412  130.4610  154.0001 C.ar    1  UNL1        0.0786
     34 C         139.9873  129.2290  153.9443 C.3     1  UNL1        0.0538
     35 C         140.7137  131.5778  154.9933 C.ar    1  UNL1        0.0963
     36 C         144.8567  132.7673  157.9333 C.3     1  UNL1        0.2525
     37 O         143.9215  132.7562  156.7607 O.3     1  UNL1       -0.4700
@<TRIPOS>BOND
     1    36    37    1
     2    37    24    1
     3    24    25   ar
     4    25    26   ar
     5    26     1    1
     6     1     2   ar
     7     2     3   ar
     8     3     6    1
     9     6     7    1
    10     7     8    1
    11     8     9    1
    12     9    10   ar
    13    10    11   ar
    14    11    12    1
    15    11    13   ar
    16    13    14   ar
    17    14    15   ar
    18    15    16    1
    19    16    19    1
    20    19    20    1
    21    20    21    1
    22    20    22    1
    23    20    23    1
    24    16    17   am
    25    17    18    2
    26     3     4   ar
    27     4     5   ar
    28    26    27   ar
    29    27    28   ar
    30    28    29   ar
    31    29    30    1
    32    30    31   ar
    33    31    32   ar
    34    32    33   ar
    35    33    34    1
    36    33    35   ar
    37    29    24   ar
    38    35    30   ar
    39     5     1   ar
    40    17     6    1
    41    15     9   ar
@<TRIPOS>MOLECULE
*****
 37 41 0 0 0
SMALL
GASTEIGER

@<TRIPOS>ATOM
      1 C         139.6818  142.3092  159.8970 C.ar    1  UNL1        0.1233
      2 C         140.1454  142.4580  161.3158 C.ar    1  UNL1        0.1180
      3 N         139.9221  141.1505  162.0161 N.ar    1  UNL1       -0.2233
      4 N         139.3204  140.1935  161.0301 N.ar    1  UNL1       -0.0634
      5 N         139.1719  140.9096  159.7204 N.ar    1  UNL1       -0.1287
      6 C         140.2438  140.8522  163.4505 C.3     1  UNL1        0.1834
      7 C         139.1068  141.0022  164.4173 C.3     1  UNL1        0.0386
      8 C         139.1053  140.7804  165.9008 C.3     1  UNL1        0.0302
      9 C         140.2403  140.3539  166.7840 C.ar    1  UNL1       -0.0062
     10 C         139.8105  140.2507  168.2173 C.ar    1  UNL1        0.0266
     11 C         140.7976  139.8374  169.2683 C.ar    1  UNL1        0.1399
     12 F         140.3678  139.7341  170.7018 F       1  UNL1       -0.2042
     13 C         142.2145  139.5273  168.8860 C.ar    1  UNL1        0.0309
     14 C         142.6443  139.6305  167.4527 C.ar    1  UNL1        0.0169
     15 C         141.6572  140.0438  166.4016 C.ar    1  UNL1        0.0503
     16 N         142.2890  140.0837  165.0418 N.am    1  UNL1       -0.2492
     17 C         141.6601  140.4435  163.7284 C.2     1  UNL1        0.2520
     18 O         142.4221  140.4394  162.4364 O.2     1  UNL1       -0.2724
     19 C         143.7420  139.7150  164.9882 C.3     1  UNL1        0.2016
     20 C         144.7597  140.7350  164.5709 C.3     1  UNL1        0.4160
     21 F         145.7773  141.7550  164.1537 F       1  UNL1       -0.1682
     22 F         144.2559  141.8576  165.4287 F       1  UNL1       -0.1682
     23 F         145.3924  139.7292  163.6554 F       1  UNL1       -0.1682
     24 C         139.1472  144.1817  156.4391 C.ar    1  UNL1        0.1547
     25 C         139.1078  143.1177  157.4956 C.ar    1  UNL1        0.0400
     26 C         139.7212  143.3731  158.8404 C.ar    1  UNL1        0.0241
     27 C         140.3740  144.6925  159.1286 C.ar    1  UNL1        0.0033
     28 C         140.4134  145.7565  158.0720 C.ar    1  UNL1        0.0207
     29 C         139.8000  145.5011  156.7273 C.ar    1  UNL1        0.0994
     30 N         139.8395  146.5651  155.6707 N.ar    1  UNL1       -0.2839
     31 C         138.9962  147.8051  155.6362 C.ar    1  UNL1        0.1826
     32 N         139.3647  148.5822  154.4073 N.ar    1  UNL1       -0.2280
     33 C         140.4357  147.8225  153.6822 C.ar    1  UNL1        0.0786
     34 C         141.0971  148.2367  152.4012 C.3     1  UNL1        0.0538
     35 C         140.7291  146.5759  154.4630 C.ar    1  UNL1        0.0963
     36 C         137.0742  144.1921  154.8730 C.3     1  UNL1        0.2525
     37 O         138.5338  143.9263  155.0943 O.3     1  UNL1       -0.4700
@<TRIPOS>BOND
     1    36    37    1
     2    37    24    1
     3    24    25   ar
     4    25    26   ar
     5    26     1    1
     6     1     2   ar
     7     2     3   ar
     8     3     6    1
     9     6     7    1
    10     7     8    1
    11     8     9    1
    12     9    10   ar
    13    10    11   ar
    14    11    12    1
    15    11    13   ar
    16    13    14   ar
    17    14    15   ar
    18    15    16    1
    19    16    19    1
    20    19    20    1
    21    20    21    1
    22    20    22    1
    23    20    23    1
    24    16    17   am
    25    17    18    2
    26     3     4   ar
    27     4     5   ar
    28    26    27   ar
    29    27    28   ar
    30    28    29   ar
    31    29    30    1
    32    30    31   ar
    33    31    32   ar
    34    32    33   ar
    35    33    34    1
    36    33    35   ar
    37    29    24   ar
    38    35    30   ar
    39     5     1   ar
    40    17     6    1
    41    15     9   ar
@<TRIPOS>MOLECULE
*****
 37 41 0 0 0
SMALL
GASTEIGER

@<TRIPOS>ATOM
      1 C         139.5157  143.4366  160.0887 C.ar    1  UNL1        0.1233
      2 C         140.4183  143.3457  161.2833 C.ar    1  UNL1        0.1180
      3 N         139.7039  142.5640  162.3456 N.ar    1  UNL1       -0.2233
      4 N         138.3598  142.1718  161.8076 N.ar    1  UNL1       -0.0634
      5 N         138.2434  142.7111  160.4127 N.ar    1  UNL1       -0.1287
      6 C         140.2396  142.2327  163.7070 C.3     1  UNL1        0.1834
      7 C         139.8526  143.1771  164.8062 C.3     1  UNL1        0.0386
      8 C         140.2219  143.1228  166.2590 C.3     1  UNL1        0.0302
      9 C         141.0694  142.1107  166.9715 C.ar    1  UNL1       -0.0062
     10 C         141.1895  142.4277  168.4326 C.ar    1  UNL1        0.0266
     11 C         141.9972  141.5369  169.3293 C.ar    1  UNL1        0.1399
     12 F         142.1174  141.8538  170.7906 F       1  UNL1       -0.2042
     13 C         142.6847  140.3291  168.7648 C.ar    1  UNL1        0.0309
     14 C         142.5646  140.0122  167.3037 C.ar    1  UNL1        0.0169
     15 C         141.7569  140.9030  166.4070 C.ar    1  UNL1        0.0503
     16 N         141.7667  140.4090  164.9906 N.am    1  UNL1       -0.2492
     17 C         141.0915  141.0007  163.7890 C.2     1  UNL1        0.2520
     18 O         141.1902  140.3919  162.4217 O.2     1  UNL1       -0.2724
     19 C         142.5562  139.1578  164.7432 C.3     1  UNL1        0.2016
     20 C         141.8624  137.9140  164.2725 C.3     1  UNL1        0.4160
     21 F         141.1686  136.6702  163.8018 F       1  UNL1       -0.1682
     22 F         140.8276  137.8602  165.3571 F       1  UNL1       -0.1682
     23 F         142.8198  137.8154  163.1220 F       1  UNL1       -0.1682
     24 C         139.4551  144.4060  156.2408 C.ar    1  UNL1        0.1547
     25 C         139.1407  143.7115  157.5325 C.ar    1  UNL1        0.0400
     26 C         139.8301  144.1311  158.7969 C.ar    1  UNL1        0.0241
     27 C         140.8341  145.2453  158.7694 C.ar    1  UNL1        0.0033
     28 C         141.1485  145.9398  157.4776 C.ar    1  UNL1        0.0207
     29 C         140.4591  145.5201  156.2133 C.ar    1  UNL1        0.0994
     30 N         140.7736  146.2147  154.9215 N.ar    1  UNL1       -0.2839
     31 C         141.7225  145.7277  153.8668 C.ar    1  UNL1        0.1826
     32 N         141.7297  146.7302  152.7511 N.ar    1  UNL1       -0.2280
     33 C         140.7853  147.8368  153.1162 C.ar    1  UNL1        0.0786
     34 C         140.4845  149.0492  152.2857 C.3     1  UNL1        0.0538
     35 C         140.1943  147.5182  154.4575 C.ar    1  UNL1        0.0963
     36 C         137.4111  144.5373  154.6425 C.3     1  UNL1        0.2525
     37 O         138.7657  143.9864  154.9765 O.3     1  UNL1       -0.4700
@<TRIPOS>BOND
     1    36    37    1
     2    37    24    1
     3    24    25   ar
     4    25    26   ar
     5    26     1    1
     6     1     2   ar
     7     2     3   ar
     8     3     6    1
     9     6     7    1
    10     7     8    1
    11     8     9    1
    12     9    10   ar
    13    10    11   ar
    14    11    12    1
    15    11    13   ar
    16    13    14   ar
    17    14    15   ar
    18    15    16    1
    19    16    19    1
    20    19    20    1
    21    20    21    1
    22    20    22    1
    23    20    23    1
    24    16    17   am
    25    17    18    2
    26     3     4   ar
    27     4     5   ar
    28    26    27   ar
    29    27    28   ar
    30    28    29   ar
    31    29    30    1
    32    30    31   ar
    33    31    32   ar
    34    32    33   ar
    35    33    34    1
    36    33    35   ar
    37    29    24   ar
    38    35    30   ar
    39     5     1   ar
    40    17     6    1
    41    15     9   ar
@<TRIPOS>MOLECULE
*****
 37 41 0 0 0
SMALL
GASTEIGER

@<TRIPOS>ATOM
      1 C         140.5608  139.3917  159.7074 C.ar    1  UNL1        0.1233
      2 C         140.8281  139.0512  161.1436 C.ar    1  UNL1        0.1180
      3 N         140.4560  140.2402  161.9789 N.ar    1  UNL1       -0.2233
      4 N         139.9588  141.3156  161.0590 N.ar    1  UNL1       -0.0634
      5 N         140.0236  140.7912  159.6551 N.ar    1  UNL1       -0.1287
      6 C         140.5625  140.3369  163.4720 C.3     1  UNL1        0.1834
      7 C         139.3938  139.7999  164.2440 C.3     1  UNL1        0.0386
      8 C         139.1976  139.7513  165.7303 C.3     1  UNL1        0.0302
      9 C         140.1215  140.2274  166.8118 C.ar    1  UNL1       -0.0062
     10 C         139.5395  139.9899  168.1737 C.ar    1  UNL1        0.0266
     11 C         140.3059  140.3949  169.3978 C.ar    1  UNL1        0.1399
     12 F         139.7239  140.1574  170.7598 F       1  UNL1       -0.2042
     13 C         141.6544  141.0374  169.2600 C.ar    1  UNL1        0.0309
     14 C         142.2364  141.2749  167.8982 C.ar    1  UNL1        0.0169
     15 C         141.4700  140.8699  166.6740 C.ar    1  UNL1        0.0503
     16 N         142.2274  141.1949  165.4207 N.am    1  UNL1       -0.2492
     17 C         141.8236  140.9577  163.9957 C.2     1  UNL1        0.2520
     18 O         142.6915  141.3384  162.8330 O.2     1  UNL1       -0.2724
     19 C         143.5657  141.8428  165.6187 C.3     1  UNL1        0.2016
     20 C         143.7910  143.2536  165.1615 C.3     1  UNL1        0.4160
     21 F         144.0162  144.6643  164.7042 F       1  UNL1       -0.1682
     22 F         142.3604  143.6991  165.2314 F       1  UNL1       -0.1682
     23 F         145.2601  142.9780  165.0349 F       1  UNL1       -0.1682
     24 C         139.8678  137.1850  156.4825 C.ar    1  UNL1        0.1547
     25 C         139.6381  138.0859  157.6596 C.ar    1  UNL1        0.0400
     26 C         140.7905  138.4908  158.5303 C.ar    1  UNL1        0.0241
     27 C         142.1725  137.9949  158.2238 C.ar    1  UNL1        0.0033
     28 C         142.4022  137.0941  157.0466 C.ar    1  UNL1        0.0207
     29 C         141.2499  136.6891  156.1760 C.ar    1  UNL1        0.0994
     30 N         141.4796  135.7883  154.9988 N.ar    1  UNL1       -0.2839
     31 C         141.6848  136.2274  153.5793 C.ar    1  UNL1        0.1826
     32 N         141.8765  135.0006  152.7377 N.ar    1  UNL1       -0.2280
     33 C         141.7898  133.8033  153.6371 C.ar    1  UNL1        0.0786
     34 C         141.9247  132.3707  153.2134 C.3     1  UNL1        0.0538
     35 C         141.5445  134.2901  155.0345 C.ar    1  UNL1        0.0963
     36 C         138.2353  137.6990  154.5279 C.3     1  UNL1        0.2525
     37 O         138.7154  136.7801  155.6119 O.3     1  UNL1       -0.4700
@<TRIPOS>BOND
     1    36    37    1
     2    37    24    1
     3    24    25   ar
     4    25    26   ar
     5    26     1    1
     6     1     2   ar
     7     2     3   ar
     8     3     6    1
     9     6     7    1
    10     7     8    1
    11     8     9    1
    12     9    10   ar
    13    10    11   ar
    14    11    12    1
    15    11    13   ar
    16    13    14   ar
    17    14    15   ar
    18    15    16    1
    19    16    19    1
    20    19    20    1
    21    20    21    1
    22    20    22    1
    23    20    23    1
    24    16    17   am
    25    17    18    2
    26     3     4   ar
    27     4     5   ar
    28    26    27   ar
    29    27    28   ar
    30    28    29   ar
    31    29    30    1
    32    30    31   ar
    33    31    32   ar
    34    32    33   ar
    35    33    34    1
    36    33    35   ar
    37    29    24   ar
    38    35    30   ar
    39     5     1   ar
    40    17     6    1
    41    15     9   ar
@<TRIPOS>MOLECULE
*****
 37 41 0 0 0
SMALL
GASTEIGER

@<TRIPOS>ATOM
      1 C         142.4979  141.4972  158.2194 C.ar    1  UNL1        0.1233
      2 C         142.3854  140.9041  159.5926 C.ar    1  UNL1        0.1180
      3 N         140.9340  140.8823  159.9707 N.ar    1  UNL1       -0.2233
      4 N         140.1495  141.4619  158.8311 N.ar    1  UNL1       -0.0634
      5 N         141.1160  141.8419  157.7488 N.ar    1  UNL1       -0.1287
      6 C         140.3667  140.3707  161.2616 C.3     1  UNL1        0.1834
      7 C         140.1707  138.8858  161.3432 C.3     1  UNL1        0.0386
      8 C         139.6301  138.0752  162.4836 C.3     1  UNL1        0.0302
      9 C         139.1518  138.5491  163.8241 C.ar    1  UNL1       -0.0062
     10 C         138.6884  137.4052  164.6765 C.ar    1  UNL1        0.0266
     11 C         138.1693  137.6631  166.0599 C.ar    1  UNL1        0.1399
     12 F         137.7058  136.5192  166.9124 F       1  UNL1       -0.2042
     13 C         138.1136  139.0648  166.5910 C.ar    1  UNL1        0.0309
     14 C         138.5771  140.2087  165.7386 C.ar    1  UNL1        0.0169
     15 C         139.0962  139.9509  164.3551 C.ar    1  UNL1        0.0503
     16 N         139.5050  141.2248  163.6768 N.am    1  UNL1       -0.2492
     17 C         140.0704  141.4117  162.3001 C.2     1  UNL1        0.2520
     18 O         140.4366  142.7583  161.7500 O.2     1  UNL1       -0.2724
     19 C         139.3245  142.4776  164.4818 C.3     1  UNL1        0.2016
     20 C         138.2972  143.4910  164.0720 C.3     1  UNL1        0.4160
     21 F         137.2700  144.5043  163.6622 F       1  UNL1       -0.1682
     22 F         137.1921  142.5212  163.7748 F       1  UNL1       -0.1682
     23 F         139.2845  144.5925  164.3211 F       1  UNL1       -0.1682
     24 C         145.1205  141.5181  155.2410 C.ar    1  UNL1        0.1547
     25 C         143.8493  141.3069  156.0086 C.ar    1  UNL1        0.0400
     26 C         143.7691  141.7084  157.4517 C.ar    1  UNL1        0.0241
     27 C         144.9601  142.3210  158.1270 C.ar    1  UNL1        0.0033
     28 C         146.2313  142.5322  157.3593 C.ar    1  UNL1        0.0207
     29 C         146.3115  142.1308  155.9163 C.ar    1  UNL1        0.0994
     30 N         147.5828  142.3420  155.1486 N.ar    1  UNL1       -0.2839
     31 C         147.7805  143.3092  154.0192 C.ar    1  UNL1        0.1826
     32 N         149.1994  143.1880  153.5482 N.ar    1  UNL1       -0.2280
     33 C         149.8787  142.1460  154.3864 C.ar    1  UNL1        0.0786
     34 C         151.3064  141.7043  154.2580 C.3     1  UNL1        0.0538
     35 C         148.8796  141.6231  155.3755 C.ar    1  UNL1        0.0963
     36 C         145.2366  139.6643  153.4244 C.3     1  UNL1        0.2525
     37 O         145.2007  141.1166  153.7979 O.3     1  UNL1       -0.4700
@<TRIPOS>BOND
     1    36    37    1
     2    37    24    1
     3    24    25   ar
     4    25    26   ar
     5    26     1    1
     6     1     2   ar
     7     2     3   ar
     8     3     6    1
     9     6     7    1
    10     7     8    1
    11     8     9    1
    12     9    10   ar
    13    10    11   ar
    14    11    12    1
    15    11    13   ar
    16    13    14   ar
    17    14    15   ar
    18    15    16    1
    19    16    19    1
    20    19    20    1
    21    20    21    1
    22    20    22    1
    23    20    23    1
    24    16    17   am
    25    17    18    2
    26     3     4   ar
    27     4     5   ar
    28    26    27   ar
    29    27    28   ar
    30    28    29   ar
    31    29    30    1
    32    30    31   ar
    33    31    32   ar
    34    32    33   ar
    35    33    34    1
    36    33    35   ar
    37    29    24   ar
    38    35    30   ar
    39     5     1   ar
    40    17     6    1
    41    15     9   ar
@<TRIPOS>MOLECULE
*****
 37 41 0 0 0
SMALL
GASTEIGER

@<TRIPOS>ATOM
      1 C         143.3349  139.7595  160.6014 C.ar    1  UNL1        0.1233
      2 C         142.9750  140.4253  161.8965 C.ar    1  UNL1        0.1180
      3 N         142.6248  139.3544  162.8867 N.ar    1  UNL1       -0.2233
      4 N         142.7683  138.0267  162.2036 N.ar    1  UNL1       -0.0634
      5 N         143.2072  138.2771  160.7912 N.ar    1  UNL1       -0.1287
      6 C         142.2048  139.5728  164.3100 C.3     1  UNL1        0.1834
      7 C         143.3016  139.9486  165.2618 C.3     1  UNL1        0.0386
      8 C         143.2079  140.2309  166.7320 C.3     1  UNL1        0.0302
      9 C         141.9945  140.2072  167.6136 C.ar    1  UNL1       -0.0062
     10 C         142.3406  140.5523  169.0317 C.ar    1  UNL1        0.0266
     11 C         141.2671  140.5855  170.0788 C.ar    1  UNL1        0.1399
     12 F         141.6131  140.9306  171.4970 F       1  UNL1       -0.2042
     13 C         139.8475  140.2737  169.7078 C.ar    1  UNL1        0.0309
     14 C         139.5015  139.9286  168.2897 C.ar    1  UNL1        0.0169
     15 C         140.5750  139.8954  167.2426 C.ar    1  UNL1        0.0503
     16 N         140.0183  139.5302  165.8984 N.am    1  UNL1       -0.2492
     17 C         140.7436  139.3866  164.5933 C.2     1  UNL1        0.2520
     18 O         140.0498  139.0123  163.3171 O.2     1  UNL1       -0.2724
     19 C         138.5409  139.2747  165.8535 C.3     1  UNL1        0.2016
     20 C         137.9892  137.9729  166.3546 C.3     1  UNL1        0.4160
     21 F         137.4375  136.6713  166.8558 F       1  UNL1       -0.1682
     22 F         136.9723  138.5540  167.2918 F       1  UNL1       -0.1682
     23 F         138.9460  137.2276  165.4719 F       1  UNL1       -0.1682
     24 C         143.9947  140.4636  156.7520 C.ar    1  UNL1        0.1547
     25 C         143.5798  139.7689  158.0149 C.ar    1  UNL1        0.0400
     26 C         143.7498  140.4542  159.3384 C.ar    1  UNL1        0.0241
     27 C         144.3346  141.8342  159.3988 C.ar    1  UNL1        0.0033
     28 C         144.7494  142.5288  158.1358 C.ar    1  UNL1        0.0207
     29 C         144.5795  141.8436  156.8124 C.ar    1  UNL1        0.0994
     30 N         144.9944  142.5384  155.5493 N.ar    1  UNL1       -0.2839
     31 C         144.0721  143.1168  154.5174 C.ar    1  UNL1        0.1826
     32 N         144.9121  143.7125  153.4268 N.ar    1  UNL1       -0.2280
     33 C         146.3535  143.5023  153.7846 C.ar    1  UNL1        0.0786
     34 C         147.5364  143.9408  152.9732 C.3     1  UNL1        0.0538
     35 C         146.4044  142.7766  155.0964 C.ar    1  UNL1        0.0963
     36 C         144.9674  139.0151  154.8269 C.3     1  UNL1        0.2525
     37 O         143.8248  139.7783  155.4285 O.3     1  UNL1       -0.4700
@<TRIPOS>BOND
     1    36    37    1
     2    37    24    1
     3    24    25   ar
     4    25    26   ar
     5    26     1    1
     6     1     2   ar
     7     2     3   ar
     8     3     6    1
     9     6     7    1
    10     7     8    1
    11     8     9    1
    12     9    10   ar
    13    10    11   ar
    14    11    12    1
    15    11    13   ar
    16    13    14   ar
    17    14    15   ar
    18    15    16    1
    19    16    19    1
    20    19    20    1
    21    20    21    1
    22    20    22    1
    23    20    23    1
    24    16    17   am
    25    17    18    2
    26     3     4   ar
    27     4     5   ar
    28    26    27   ar
    29    27    28   ar
    30    28    29   ar
    31    29    30    1
    32    30    31   ar
    33    31    32   ar
    34    32    33   ar
    35    33    34    1
    36    33    35   ar
    37    29    24   ar
    38    35    30   ar
    39     5     1   ar
    40    17     6    1
    41    15     9   ar
@<TRIPOS>MOLECULE
*****
 37 41 0 0 0
SMALL
GASTEIGER

@<TRIPOS>ATOM
      1 C         142.9021  137.2296  157.5039 C.ar    1  UNL1        0.1233
      2 C         142.6009  137.5370  158.9408 C.ar    1  UNL1        0.1180
      3 N         143.0307  138.9481  159.2129 N.ar    1  UNL1       -0.2233
      4 N         143.5974  139.5128  157.9441 N.ar    1  UNL1       -0.0634
      5 N         143.5179  138.4507  156.8879 N.ar    1  UNL1       -0.1287
      6 C         142.9141  139.6680  160.5237 C.3     1  UNL1        0.1834
      7 C         144.1117  139.5811  161.4227 C.3     1  UNL1        0.0386
      8 C         144.3063  140.1844  162.7821 C.3     1  UNL1        0.0302
      9 C         143.3515  141.0236  163.5784 C.ar    1  UNL1       -0.0062
     10 C         143.9432  141.4255  164.8968 C.ar    1  UNL1        0.0266
     11 C         143.1496  142.2706  165.8486 C.ar    1  UNL1        0.1399
     12 F         143.7413  142.6726  167.1671 F       1  UNL1       -0.2042
     13 C         141.7642  142.7138  165.4820 C.ar    1  UNL1        0.0309
     14 C         141.1725  142.3119  164.1636 C.ar    1  UNL1        0.0169
     15 C         141.9661  141.4668  163.2118 C.ar    1  UNL1        0.0503
     16 N         141.1935  141.1802  161.9584 N.am    1  UNL1       -0.2492
     17 C         141.6153  140.3797  160.7620 C.2     1  UNL1        0.2520
     18 O         140.7288  140.1758  159.5694 O.2     1  UNL1       -0.2724
     19 C         139.8170  141.7725  161.8926 C.3     1  UNL1        0.2016
     20 C         138.6366  140.9823  162.3748 C.3     1  UNL1        0.4160
     21 F         137.4564  140.1920  162.8569 F       1  UNL1       -0.1682
     22 F         139.3602  139.6862  162.5907 F       1  UNL1       -0.1682
     23 F         137.7627  142.1911  162.2164 F       1  UNL1       -0.1682
     24 C         143.0181  133.3686  156.5935 C.ar    1  UNL1        0.1547
     25 C         143.2859  134.6687  157.2919 C.ar    1  UNL1        0.0400
     26 C         142.6344  135.9293  156.8055 C.ar    1  UNL1        0.0241
     27 C         141.7151  135.8896  155.6209 C.ar    1  UNL1        0.0033
     28 C         141.4474  134.5894  154.9226 C.ar    1  UNL1        0.0207
     29 C         142.0989  133.3289  155.4089 C.ar    1  UNL1        0.0994
     30 N         141.8311  132.0286  154.7105 N.ar    1  UNL1       -0.2839
     31 C         142.7264  131.3671  153.7050 C.ar    1  UNL1        0.1826
     32 N         142.0696  130.0913  153.2682 N.ar    1  UNL1       -0.2280
     33 C         140.7685  129.9642  154.0036 C.ar    1  UNL1        0.0786
     34 C         139.7871  128.8376  153.8709 C.3     1  UNL1        0.0538
     35 C         140.6211  131.1615  154.8950 C.ar    1  UNL1        0.0963
     36 C         145.1140  131.8437  156.7732 C.3     1  UNL1        0.2525
     37 O         143.6697  132.1080  157.0798 O.3     1  UNL1       -0.4700
@<TRIPOS>BOND
     1    36    37    1
     2    37    24    1
     3    24    25   ar
     4    25    26   ar
     5    26     1    1
     6     1     2   ar
     7     2     3   ar
     8     3     6    1
     9     6     7    1
    10     7     8    1
    11     8     9    1
    12     9    10   ar
    13    10    11   ar
    14    11    12    1
    15    11    13   ar
    16    13    14   ar
    17    14    15   ar
    18    15    16    1
    19    16    19    1
    20    19    20    1
    21    20    21    1
    22    20    22    1
    23    20    23    1
    24    16    17   am
    25    17    18    2
    26     3     4   ar
    27     4     5   ar
    28    26    27   ar
    29    27    28   ar
    30    28    29   ar
    31    29    30    1
    32    30    31   ar
    33    31    32   ar
    34    32    33   ar
    35    33    34    1
    36    33    35   ar
    37    29    24   ar
    38    35    30   ar
    39     5     1   ar
    40    17     6    1
    41    15     9   ar
