@<TRIPOS>MOLECULE
*****
 33 37 0 0 0
SMALL
GASTEIGER

@<TRIPOS>ATOM
      1 N         140.6204  143.2840  165.0397 N.3     1  UNL1       -0.2655
      2 C         139.3968  143.6306  164.2443 C.3     1  UNL1        0.1132
      3 C         139.5282  144.0477  162.8095 C.3     1  UNL1        0.1849
      4 N         140.8832  144.1183  162.1700 N.pl3   1  UNL1       -0.1905
      5 C         142.1069  143.7718  162.9654 C.3     1  UNL1        0.1849
      6 C         141.9755  143.3546  164.4002 C.3     1  UNL1        0.1132
      7 C         141.0146  144.5355  160.7352 C.cat   1  UNL1        0.4230
      8 N         140.0600  145.4130  159.9812 N.2     1  UNL1       -0.0678
      9 C         140.5790  145.5682  158.5824 C.2     1  UNL1        0.1887
     10 C         140.0551  146.3203  157.3951 C.2     1  UNL1        0.0433
     11 C         140.8066  146.2907  156.0973 C.2     1  UNL1        0.0706
     12 C         142.0821  145.5091  155.9869 C.2     1  UNL1       -0.0142
     13 C         142.6061  144.7570  157.1742 C.3     1  UNL1        0.0931
     14 C         141.8545  144.7866  158.4720 C.2     1  UNL1        0.1744
     15 N         142.1238  144.1483  159.8025 N.2     1  UNL1       -0.0716
     16 C         140.2827  147.0428  154.9099 C.3     1  UNL1        0.4184
     17 F         139.7587  147.7948  153.7225 F       1  UNL1       -0.1659
     18 F         139.2928  147.7449  155.7914 F       1  UNL1       -0.1659
     19 F         141.2726  146.3406  154.0283 F       1  UNL1       -0.1659
     20 C         140.4890  142.8669  166.4745 C.3     1  UNL1        0.0971
     21 C         140.1112  141.4553  166.8136 C.3     1  UNL1        0.1264
     22 O         142.6352  140.8543  168.3198 O.2     1  UNL1       -0.2670
     23 C         142.2520  140.0187  167.1343 C.ar    1  UNL1        0.2611
     24 C         143.1309  138.8826  166.7020 C.ar    1  UNL1        0.0623
     25 C         142.7478  138.0471  165.5167 C.ar    1  UNL1        0.0255
     26 C         141.4858  138.3476  164.7636 C.ar    1  UNL1        0.0974
     27 N         141.1028  137.5121  163.5783 N.ar    1  UNL1       -0.2400
     28 C         139.8408  137.8126  162.8252 C.ar    1  UNL1        0.1285
     29 C         138.9619  138.9487  163.2575 C.ar    1  UNL1        0.1607
     30 F         137.6999  139.2492  162.5044 F       1  UNL1       -0.2025
     31 C         139.3450  139.7842  164.4428 C.ar    1  UNL1        0.0500
     32 C         140.6070  139.4837  165.1959 C.ar    1  UNL1        0.0824
     33 N         140.9901  140.3192  166.3813 N.ar    1  UNL1       -0.2926
@<TRIPOS>BOND
     1    22    23    2
     2    23    24   ar
     3    24    25   ar
     4    25    26   ar
     5    26    27   ar
     6    27    28   ar
     7    28    29   ar
     8    29    30    1
     9    29    31   ar
    10    31    32   ar
    11    32    33   ar
    12    33    21    1
    13    21    20    1
    14    20     1    1
    15     1     2    1
    16     2     3    1
    17     3     4    1
    18     4     7    1
    19     7     8    2
    20     8     9    1
    21     9    10    2
    22    10    11    1
    23    11    16    1
    24    16    17    1
    25    16    18    1
    26    16    19    1
    27    11    12    2
    28    12    13    1
    29    13    14    1
    30    14    15    2
    31     4     5    1
    32     5     6    1
    33    33    23   ar
    34     6     1    1
    35    32    26   ar
    36    15     7    1
    37    14     9    1
@<TRIPOS>MOLECULE
*****
 33 37 0 0 0
SMALL
GASTEIGER

@<TRIPOS>ATOM
      1 N         140.5248  144.7474  159.6923 N.3     1  UNL1       -0.2655
      2 C         140.4095  143.2533  159.6281 C.3     1  UNL1        0.1132
      3 C         140.1710  142.4649  160.8817 C.3     1  UNL1        0.1849
      4 N         140.0478  143.1707  162.1995 N.pl3   1  UNL1       -0.1905
      5 C         140.1631  144.6649  162.2637 C.3     1  UNL1        0.1849
      6 C         140.4016  145.4533  161.0101 C.3     1  UNL1        0.1132
      7 C         139.8093  142.3823  163.4531 C.cat   1  UNL1        0.4230
      8 N         140.4757  142.6092  164.7776 N.2     1  UNL1       -0.0678
      9 C         139.9408  141.5958  165.7455 C.2     1  UNL1        0.1887
     10 C         140.2328  141.3397  167.1943 C.2     1  UNL1        0.0433
     11 C         139.5277  140.2303  167.9168 C.2     1  UNL1        0.0706
     12 C         138.5306  139.3770  167.1904 C.2     1  UNL1       -0.0142
     13 C         138.2386  139.6330  165.7416 C.3     1  UNL1        0.0931
     14 C         138.9437  140.7424  165.0192 C.2     1  UNL1        0.1744
     15 N         138.8623  141.2285  163.6024 N.2     1  UNL1       -0.0716
     16 C         139.8197  139.9742  169.3657 C.3     1  UNL1        0.4184
     17 F         140.1118  139.7181  170.8145 F       1  UNL1       -0.1659
     18 F         141.2887  139.9435  169.0641 F       1  UNL1       -0.1659
     19 F         138.3506  140.0049  169.6672 F       1  UNL1       -0.1659
     20 C         140.7633  145.5358  158.4386 C.3     1  UNL1        0.0971
     21 C         139.9231  145.2824  157.2221 C.3     1  UNL1        0.1264
     22 O         141.3477  144.2753  154.7815 O.2     1  UNL1       -0.2670
     23 C         140.7747  145.6616  154.7970 C.ar    1  UNL1        0.2611
     24 C         140.9140  146.5442  153.5922 C.ar    1  UNL1        0.0623
     25 C         140.3411  147.9304  153.6077 C.ar    1  UNL1        0.0255
     26 C         139.6288  148.4339  154.8280 C.ar    1  UNL1        0.0974
     27 N         139.0558  149.8201  154.8435 N.ar    1  UNL1       -0.2400
     28 C         138.3436  150.3236  156.0638 C.ar    1  UNL1        0.1285
     29 C         138.2042  149.4409  157.2685 C.ar    1  UNL1        0.1607
     30 F         137.4919  149.9445  158.4889 F       1  UNL1       -0.2025
     31 C         138.7771  148.0548  157.2531 C.ar    1  UNL1        0.0500
     32 C         139.4894  147.5513  156.0328 C.ar    1  UNL1        0.0824
     33 N         140.0624  146.1651  156.0173 N.ar    1  UNL1       -0.2926
@<TRIPOS>BOND
     1    22    23    2
     2    23    24   ar
     3    24    25   ar
     4    25    26   ar
     5    26    27   ar
     6    27    28   ar
     7    28    29   ar
     8    29    30    1
     9    29    31   ar
    10    31    32   ar
    11    32    33   ar
    12    33    21    1
    13    21    20    1
    14    20     1    1
    15     1     2    1
    16     2     3    1
    17     3     4    1
    18     4     7    1
    19     7     8    2
    20     8     9    1
    21     9    10    2
    22    10    11    1
    23    11    16    1
    24    16    17    1
    25    16    18    1
    26    16    19    1
    27    11    12    2
    28    12    13    1
    29    13    14    1
    30    14    15    2
    31     4     5    1
    32     5     6    1
    33    33    23   ar
    34     6     1    1
    35    32    26   ar
    36    15     7    1
    37    14     9    1
@<TRIPOS>MOLECULE
*****
 33 37 0 0 0
SMALL
GASTEIGER

@<TRIPOS>ATOM
      1 N         143.0098  139.1248  160.8669 N.3     1  UNL1       -0.2655
      2 C         143.0980  138.2466  162.0797 C.3     1  UNL1        0.1132
      3 C         142.8700  138.8269  163.4440 C.3     1  UNL1        0.1849
      4 N         142.5539  140.2853  163.5955 N.pl3   1  UNL1       -0.1905
      5 C         142.4657  141.1636  162.3826 C.3     1  UNL1        0.1849
      6 C         142.6936  140.5833  161.0183 C.3     1  UNL1        0.1132
      7 C         142.3259  140.8656  164.9598 C.cat   1  UNL1        0.4230
      8 N         140.9934  141.1781  165.5736 N.2     1  UNL1       -0.0678
      9 C         141.2344  141.7409  166.9430 C.2     1  UNL1        0.1887
     10 C         140.2962  142.2257  168.0082 C.2     1  UNL1        0.0433
     11 C         140.8395  142.7459  169.3060 C.2     1  UNL1        0.0706
     12 C         142.3210  142.7813  169.5385 C.2     1  UNL1       -0.0142
     13 C         143.2591  142.2964  168.4733 C.3     1  UNL1        0.0931
     14 C         142.7158  141.7762  167.1755 C.2     1  UNL1        0.1744
     15 N         143.3905  141.2353  165.9498 N.2     1  UNL1       -0.0716
     16 C         139.9014  143.2308  170.3713 C.3     1  UNL1        0.4184
     17 F         138.9633  143.7157  171.4366 F       1  UNL1       -0.1659
     18 F         140.3045  144.6463  170.0819 F       1  UNL1       -0.1659
     19 F         139.4983  141.8152  170.6607 F       1  UNL1       -0.1659
     20 C         143.2378  138.5445  159.5026 C.3     1  UNL1        0.0971
     21 C         142.0789  138.0208  158.7071 C.3     1  UNL1        0.1264
     22 O         142.0898  139.6835  156.2100 O.2     1  UNL1       -0.2670
     23 C         140.9215  139.7476  157.1488 C.ar    1  UNL1        0.2611
     24 C         139.7588  140.6432  156.8389 C.ar    1  UNL1        0.0623
     25 C         138.5906  140.7074  157.7776 C.ar    1  UNL1        0.0255
     26 C         138.5851  139.8760  159.0262 C.ar    1  UNL1        0.0974
     27 N         137.4169  139.9402  159.9649 N.ar    1  UNL1       -0.2400
     28 C         137.4114  139.1089  161.2133 C.ar    1  UNL1        0.1285
     29 C         138.5742  138.2133  161.5232 C.ar    1  UNL1        0.1607
     30 F         138.5687  137.3819  162.7718 F       1  UNL1       -0.2025
     31 C         139.7424  138.1491  160.5845 C.ar    1  UNL1        0.0500
     32 C         139.7479  138.9805  159.3360 C.ar    1  UNL1        0.0824
     33 N         140.9161  138.9163  158.3973 N.ar    1  UNL1       -0.2926
@<TRIPOS>BOND
     1    22    23    2
     2    23    24   ar
     3    24    25   ar
     4    25    26   ar
     5    26    27   ar
     6    27    28   ar
     7    28    29   ar
     8    29    30    1
     9    29    31   ar
    10    31    32   ar
    11    32    33   ar
    12    33    21    1
    13    21    20    1
    14    20     1    1
    15     1     2    1
    16     2     3    1
    17     3     4    1
    18     4     7    1
    19     7     8    2
    20     8     9    1
    21     9    10    2
    22    10    11    1
    23    11    16    1
    24    16    17    1
    25    16    18    1
    26    16    19    1
    27    11    12    2
    28    12    13    1
    29    13    14    1
    30    14    15    2
    31     4     5    1
    32     5     6    1
    33    33    23   ar
    34     6     1    1
    35    32    26   ar
    36    15     7    1
    37    14     9    1
@<TRIPOS>MOLECULE
*****
 33 37 0 0 0
SMALL
GASTEIGER

@<TRIPOS>ATOM
      1 N         140.0312  141.6008  159.4260 N.3     1  UNL1       -0.2655
      2 C         139.0861  140.4525  159.2308 C.3     1  UNL1        0.1132
      3 C         139.5664  139.1876  158.5833 C.3     1  UNL1        0.1849
      4 N         140.9918  139.0710  158.1309 N.pl3   1  UNL1       -0.1905
      5 C         141.9370  140.2194  158.3261 C.3     1  UNL1        0.1849
      6 C         141.4567  141.4843  158.9736 C.3     1  UNL1        0.1132
      7 C         141.4721  137.8061  157.4833 C.cat   1  UNL1        0.4230
      8 N         142.5453  136.8992  158.0084 N.2     1  UNL1       -0.0678
      9 C         142.7000  135.7586  157.0466 C.2     1  UNL1        0.1887
     10 C         143.6048  134.5622  157.0456 C.2     1  UNL1        0.0433
     11 C         143.5319  133.5678  155.9250 C.2     1  UNL1        0.0706
     12 C         142.5543  133.7698  154.8054 C.2     1  UNL1       -0.0142
     13 C         141.6496  134.9662  154.8064 C.3     1  UNL1        0.0931
     14 C         141.7224  135.9606  155.9270 C.2     1  UNL1        0.1744
     15 N         140.9635  137.2260  156.1968 N.2     1  UNL1       -0.0716
     16 C         144.4367  132.3713  155.9240 C.3     1  UNL1        0.4184
     17 F         145.3414  131.1750  155.9230 F       1  UNL1       -0.1659
     18 F         145.0318  132.8203  157.2255 F       1  UNL1       -0.1659
     19 F         143.8414  131.9224  154.6223 F       1  UNL1       -0.1659
     20 C         139.5509  142.8657  160.0736 C.3     1  UNL1        0.0971
     21 C         138.4392  142.8179  161.0796 C.3     1  UNL1        0.1264
     22 O         138.8661  145.6169  162.0713 O.2     1  UNL1       -0.2670
     23 C         138.9431  144.4628  163.0265 C.ar    1  UNL1        0.2611
     24 C         139.2336  144.7082  164.4775 C.ar    1  UNL1        0.0623
     25 C         139.3107  143.5542  165.4326 C.ar    1  UNL1        0.0255
     26 C         139.0972  142.1547  164.9367 C.ar    1  UNL1        0.0974
     27 N         139.1743  141.0007  165.8918 N.ar    1  UNL1       -0.2400
     28 C         138.9608  139.6012  165.3959 C.ar    1  UNL1        0.1285
     29 C         138.6703  139.3558  163.9449 C.ar    1  UNL1        0.1607
     30 F         138.4569  137.9563  163.4491 F       1  UNL1       -0.2025
     31 C         138.5933  140.5098  162.9898 C.ar    1  UNL1        0.0500
     32 C         138.8067  141.9093  163.4857 C.ar    1  UNL1        0.0824
     33 N         138.7297  143.0634  162.5306 N.ar    1  UNL1       -0.2926
@<TRIPOS>BOND
     1    22    23    2
     2    23    24   ar
     3    24    25   ar
     4    25    26   ar
     5    26    27   ar
     6    27    28   ar
     7    28    29   ar
     8    29    30    1
     9    29    31   ar
    10    31    32   ar
    11    32    33   ar
    12    33    21    1
    13    21    20    1
    14    20     1    1
    15     1     2    1
    16     2     3    1
    17     3     4    1
    18     4     7    1
    19     7     8    2
    20     8     9    1
    21     9    10    2
    22    10    11    1
    23    11    16    1
    24    16    17    1
    25    16    18    1
    26    16    19    1
    27    11    12    2
    28    12    13    1
    29    13    14    1
    30    14    15    2
    31     4     5    1
    32     5     6    1
    33    33    23   ar
    34     6     1    1
    35    32    26   ar
    36    15     7    1
    37    14     9    1
@<TRIPOS>MOLECULE
*****
 33 37 0 0 0
SMALL
GASTEIGER

@<TRIPOS>ATOM
      1 N         140.7847  142.8346  165.1158 N.3     1  UNL1       -0.2655
      2 C         139.6127  142.6513  164.1979 C.3     1  UNL1        0.1132
      3 C         139.6758  143.1637  162.7895 C.3     1  UNL1        0.1849
      4 N         140.9109  143.8594  162.2992 N.pl3   1  UNL1       -0.1905
      5 C         142.0830  144.0427  163.2171 C.3     1  UNL1        0.1849
      6 C         142.0199  143.5303  164.6255 C.3     1  UNL1        0.1132
      7 C         140.9739  144.3719  160.8908 C.cat   1  UNL1        0.4230
      8 N         139.9347  145.2135  160.2114 N.2     1  UNL1       -0.0678
      9 C         140.4058  145.4945  158.8153 C.2     1  UNL1        0.1887
     10 C         139.7952  146.2723  157.6874 C.2     1  UNL1        0.0433
     11 C         140.5150  146.3820  156.3761 C.2     1  UNL1        0.0706
     12 C         141.8454  145.7140  156.1926 C.2     1  UNL1       -0.0142
     13 C         142.4560  144.9362  157.3204 C.3     1  UNL1        0.0931
     14 C         141.7362  144.8264  158.6318 C.2     1  UNL1        0.1744
     15 N         142.0874  144.1326  159.9145 N.2     1  UNL1       -0.0716
     16 C         139.9044  147.1599  155.2481 C.3     1  UNL1        0.4184
     17 F         139.2939  147.9376  154.1201 F       1  UNL1       -0.1659
     18 F         140.8060  146.4581  154.2762 F       1  UNL1       -0.1659
     19 F         139.0028  147.8617  156.2201 F       1  UNL1       -0.1659
     20 C         140.7217  142.3221  166.5242 C.3     1  UNL1        0.0971
     21 C         141.1919  140.9328  166.8385 C.3     1  UNL1        0.1264
     22 O         138.5969  139.4304  166.9329 O.2     1  UNL1       -0.2670
     23 C         139.6382  139.0658  165.9165 C.ar    1  UNL1        0.2611
     24 C         139.3819  137.9500  164.9473 C.ar    1  UNL1        0.0623
     25 C         140.4231  137.5854  163.9310 C.ar    1  UNL1        0.0255
     26 C         141.7206  138.3366  163.8838 C.ar    1  UNL1        0.0974
     27 N         142.7618  137.9720  162.8675 N.ar    1  UNL1       -0.2400
     28 C         144.0593  138.7232  162.8203 C.ar    1  UNL1        0.1285
     29 C         144.3155  139.8390  163.7895 C.ar    1  UNL1        0.1607
     30 F         145.6131  140.5902  163.7423 F       1  UNL1       -0.2025
     31 C         143.2744  140.2036  164.8058 C.ar    1  UNL1        0.0500
     32 C         141.9769  139.4524  164.8530 C.ar    1  UNL1        0.0824
     33 N         140.9357  139.8170  165.8694 N.ar    1  UNL1       -0.2926
@<TRIPOS>BOND
     1    22    23    2
     2    23    24   ar
     3    24    25   ar
     4    25    26   ar
     5    26    27   ar
     6    27    28   ar
     7    28    29   ar
     8    29    30    1
     9    29    31   ar
    10    31    32   ar
    11    32    33   ar
    12    33    21    1
    13    21    20    1
    14    20     1    1
    15     1     2    1
    16     2     3    1
    17     3     4    1
    18     4     7    1
    19     7     8    2
    20     8     9    1
    21     9    10    2
    22    10    11    1
    23    11    16    1
    24    16    17    1
    25    16    18    1
    26    16    19    1
    27    11    12    2
    28    12    13    1
    29    13    14    1
    30    14    15    2
    31     4     5    1
    32     5     6    1
    33    33    23   ar
    34     6     1    1
    35    32    26   ar
    36    15     7    1
    37    14     9    1
@<TRIPOS>MOLECULE
*****
 33 37 0 0 0
SMALL
GASTEIGER

@<TRIPOS>ATOM
      1 N         141.3252  141.2118  159.3535 N.3     1  UNL1       -0.2655
      2 C         142.7026  140.8622  158.8733 C.3     1  UNL1        0.1132
      3 C         142.9530  139.5396  158.2115 C.3     1  UNL1        0.1849
      4 N         141.8260  138.5666  158.0298 N.pl3   1  UNL1       -0.1905
      5 C         140.4485  138.9162  158.5099 C.3     1  UNL1        0.1849
      6 C         140.1981  140.2388  159.1718 C.3     1  UNL1        0.1132
      7 C         142.0763  137.2440  157.3679 C.cat   1  UNL1        0.4230
      8 N         143.2569  136.3494  157.6040 N.2     1  UNL1       -0.0678
      9 C         143.1003  135.1363  156.7357 C.2     1  UNL1        0.1887
     10 C         143.9558  133.9184  156.5490 C.2     1  UNL1        0.0433
     11 C         143.5339  132.8455  155.5894 C.2     1  UNL1        0.0706
     12 C         142.2565  132.9904  154.8166 C.2     1  UNL1       -0.0142
     13 C         141.4010  134.2083  155.0034 C.3     1  UNL1        0.0931
     14 C         141.8229  135.2812  155.9630 C.2     1  UNL1        0.1744
     15 N         141.1899  136.5838  156.3536 N.2     1  UNL1       -0.0716
     16 C         144.3894  131.6276  155.4026 C.3     1  UNL1        0.4184
     17 F         145.2449  130.4098  155.2157 F       1  UNL1       -0.1659
     18 F         143.5177  131.1901  154.2630 F       1  UNL1       -0.1659
     19 F         145.2612  132.0652  156.5422 F       1  UNL1       -0.1659
     20 C         141.0749  142.5344  160.0154 C.3     1  UNL1        0.0971
     21 C         140.8322  142.5990  161.4942 C.3     1  UNL1        0.1264
     22 O         140.5760  145.4910  162.2498 O.2     1  UNL1       -0.2670
     23 C         141.7233  144.6780  162.7723 C.ar    1  UNL1        0.2611
     24 C         142.7424  145.3110  163.6727 C.ar    1  UNL1        0.0623
     25 C         143.8896  144.4982  164.1952 C.ar    1  UNL1        0.0255
     26 C         144.0178  143.0521  163.8174 C.ar    1  UNL1        0.0974
     27 N         145.1650  142.2392  164.3399 N.ar    1  UNL1       -0.2400
     28 C         145.2930  140.7933  163.9621 C.ar    1  UNL1        0.1285
     29 C         144.2739  140.1602  163.0618 C.ar    1  UNL1        0.1607
     30 F         144.4020  138.7142  162.6840 F       1  UNL1       -0.2025
     31 C         143.1267  140.9731  162.5393 C.ar    1  UNL1        0.0500
     32 C         142.9986  142.4191  162.9171 C.ar    1  UNL1        0.0824
     33 N         141.8513  143.2320  162.3945 N.ar    1  UNL1       -0.2926
@<TRIPOS>BOND
     1    22    23    2
     2    23    24   ar
     3    24    25   ar
     4    25    26   ar
     5    26    27   ar
     6    27    28   ar
     7    28    29   ar
     8    29    30    1
     9    29    31   ar
    10    31    32   ar
    11    32    33   ar
    12    33    21    1
    13    21    20    1
    14    20     1    1
    15     1     2    1
    16     2     3    1
    17     3     4    1
    18     4     7    1
    19     7     8    2
    20     8     9    1
    21     9    10    2
    22    10    11    1
    23    11    16    1
    24    16    17    1
    25    16    18    1
    26    16    19    1
    27    11    12    2
    28    12    13    1
    29    13    14    1
    30    14    15    2
    31     4     5    1
    32     5     6    1
    33    33    23   ar
    34     6     1    1
    35    32    26   ar
    36    15     7    1
    37    14     9    1
@<TRIPOS>MOLECULE
*****
 33 37 0 0 0
SMALL
GASTEIGER

@<TRIPOS>ATOM
      1 N         141.6870  138.4787  159.7993 N.3     1  UNL1       -0.2655
      2 C         142.9710  138.1590  160.5057 C.3     1  UNL1        0.1132
      3 C         143.1521  138.5451  161.9438 C.3     1  UNL1        0.1849
      4 N         142.0492  139.2510  162.6754 N.pl3   1  UNL1       -0.1905
      5 C         140.7651  139.5708  161.9690 C.3     1  UNL1        0.1849
      6 C         140.5840  139.1846  160.5309 C.3     1  UNL1        0.1132
      7 C         142.2303  139.6372  164.1135 C.cat   1  UNL1        0.4230
      8 N         142.3568  141.0354  164.6418 N.2     1  UNL1       -0.0678
      9 C         142.5214  140.9553  166.1306 C.2     1  UNL1        0.1887
     10 C         142.6906  142.0136  167.1800 C.2     1  UNL1        0.0433
     11 C         142.8350  141.6242  168.6213 C.2     1  UNL1        0.0706
     12 C         142.8102  140.1765  169.0132 C.2     1  UNL1       -0.0142
     13 C         142.6409  139.1182  167.9638 C.3     1  UNL1        0.0931
     14 C         142.4965  139.5076  166.5224 C.2     1  UNL1        0.1744
     15 N         142.3166  138.6929  165.2759 N.2     1  UNL1       -0.0716
     16 C         143.0043  142.6825  169.6708 C.3     1  UNL1        0.4184
     17 F         143.1735  143.7408  170.7203 F       1  UNL1       -0.1659
     18 F         141.6248  143.1935  169.3780 F       1  UNL1       -0.1659
     19 F         144.3839  142.1715  169.9637 F       1  UNL1       -0.1659
     20 C         141.5059  138.0925  158.3612 C.3     1  UNL1        0.0971
     21 C         142.5519  137.2707  157.6678 C.3     1  UNL1        0.1264
     22 O         140.5947  138.1539  155.5727 O.2     1  UNL1       -0.2670
     23 C         141.1810  136.7743  155.5175 C.ar    1  UNL1        0.2611
     24 C         140.7886  135.8362  154.4147 C.ar    1  UNL1        0.0623
     25 C         141.3747  134.4566  154.3595 C.ar    1  UNL1        0.0255
     26 C         142.3533  134.0150  155.4071 C.ar    1  UNL1        0.0974
     27 N         142.9395  132.6354  155.3518 N.ar    1  UNL1       -0.2400
     28 C         143.9180  132.1939  156.3994 C.ar    1  UNL1        0.1285
     29 C         144.3104  133.1319  157.5022 C.ar    1  UNL1        0.1607
     30 F         145.2890  132.6902  158.5498 F       1  UNL1       -0.2025
     31 C         143.7243  134.5115  157.5574 C.ar    1  UNL1        0.0500
     32 C         142.7457  134.9530  156.5099 C.ar    1  UNL1        0.0824
     33 N         142.1595  136.3327  156.5651 N.ar    1  UNL1       -0.2926
@<TRIPOS>BOND
     1    22    23    2
     2    23    24   ar
     3    24    25   ar
     4    25    26   ar
     5    26    27   ar
     6    27    28   ar
     7    28    29   ar
     8    29    30    1
     9    29    31   ar
    10    31    32   ar
    11    32    33   ar
    12    33    21    1
    13    21    20    1
    14    20     1    1
    15     1     2    1
    16     2     3    1
    17     3     4    1
    18     4     7    1
    19     7     8    2
    20     8     9    1
    21     9    10    2
    22    10    11    1
    23    11    16    1
    24    16    17    1
    25    16    18    1
    26    16    19    1
    27    11    12    2
    28    12    13    1
    29    13    14    1
    30    14    15    2
    31     4     5    1
    32     5     6    1
    33    33    23   ar
    34     6     1    1
    35    32    26   ar
    36    15     7    1
    37    14     9    1
@<TRIPOS>MOLECULE
*****
 33 37 0 0 0
SMALL
GASTEIGER

@<TRIPOS>ATOM
      1 N         141.5012  141.6529  160.2870 N.3     1  UNL1       -0.2655
      2 C         142.6887  141.5157  159.3810 C.3     1  UNL1        0.1132
      3 C         142.8840  140.2590  158.5857 C.3     1  UNL1        0.1849
      4 N         141.8919  139.1394  158.6966 N.pl3   1  UNL1       -0.1905
      5 C         140.7044  139.2766  159.6027 C.3     1  UNL1        0.1849
      6 C         140.5090  140.5334  160.3979 C.3     1  UNL1        0.1132
      7 C         142.0873  137.8827  157.9013 C.cat   1  UNL1        0.4230
      8 N         143.1248  136.8299  158.1568 N.2     1  UNL1       -0.0678
      9 C         142.9582  135.7546  157.1244 C.2     1  UNL1        0.1887
     10 C         143.6977  134.4722  156.8825 C.2     1  UNL1        0.0433
     11 C         143.2966  133.5779  155.7471 C.2     1  UNL1        0.0706
     12 C         142.1561  133.9661  154.8534 C.2     1  UNL1       -0.0142
     13 C         141.4167  135.2485  155.0953 C.3     1  UNL1        0.0931
     14 C         141.8177  136.1428  156.2308 C.2     1  UNL1        0.1744
     15 N         141.2794  137.4580  156.7109 N.2     1  UNL1       -0.0716
     16 C         144.0361  132.2954  155.5051 C.3     1  UNL1        0.4184
     17 F         144.7755  131.0130  155.2632 F       1  UNL1       -0.1659
     18 F         143.2196  132.0578  154.2695 F       1  UNL1       -0.1659
     19 F         144.8526  132.5331  156.7409 F       1  UNL1       -0.1659
     20 C         141.3058  142.9097  161.0823 C.3     1  UNL1        0.0971
     21 C         141.7324  142.9618  162.5195 C.3     1  UNL1        0.1264
     22 O         144.5017  143.9565  161.9349 O.2     1  UNL1       -0.2670
     23 C         144.3089  142.6717  162.6848 C.ar    1  UNL1        0.2611
     24 C         145.5008  141.8842  163.1424 C.ar    1  UNL1        0.0623
     25 C         145.3080  140.5995  163.8922 C.ar    1  UNL1        0.0255
     26 C         143.9233  140.1021  164.1844 C.ar    1  UNL1        0.0974
     27 N         143.7306  138.8174  164.9343 N.ar    1  UNL1       -0.2400
     28 C         142.3460  138.3201  165.2265 C.ar    1  UNL1        0.1285
     29 C         141.1541  139.1075  164.7689 C.ar    1  UNL1        0.1607
     30 F         139.7694  138.6101  165.0612 F       1  UNL1       -0.2025
     31 C         141.3468  140.3922  164.0191 C.ar    1  UNL1        0.0500
     32 C         142.7314  140.8895  163.7269 C.ar    1  UNL1        0.0824
     33 N         142.9242  142.1743  162.9770 N.ar    1  UNL1       -0.2926
@<TRIPOS>BOND
     1    22    23    2
     2    23    24   ar
     3    24    25   ar
     4    25    26   ar
     5    26    27   ar
     6    27    28   ar
     7    28    29   ar
     8    29    30    1
     9    29    31   ar
    10    31    32   ar
    11    32    33   ar
    12    33    21    1
    13    21    20    1
    14    20     1    1
    15     1     2    1
    16     2     3    1
    17     3     4    1
    18     4     7    1
    19     7     8    2
    20     8     9    1
    21     9    10    2
    22    10    11    1
    23    11    16    1
    24    16    17    1
    25    16    18    1
    26    16    19    1
    27    11    12    2
    28    12    13    1
    29    13    14    1
    30    14    15    2
    31     4     5    1
    32     5     6    1
    33    33    23   ar
    34     6     1    1
    35    32    26   ar
    36    15     7    1
    37    14     9    1
@<TRIPOS>MOLECULE
*****
 33 37 0 0 0
SMALL
GASTEIGER

@<TRIPOS>ATOM
      1 N         140.7027  144.8554  160.3738 N.3     1  UNL1       -0.2655
      2 C         141.4617  143.5706  160.5259 C.3     1  UNL1        0.1132
      3 C         141.5817  142.9256  161.8748 C.3     1  UNL1        0.1849
      4 N         140.9428  143.5654  163.0716 N.pl3   1  UNL1       -0.1905
      5 C         140.1837  144.8502  162.9195 C.3     1  UNL1        0.1849
      6 C         140.0637  145.4952  161.5706 C.3     1  UNL1        0.1132
      7 C         141.0628  142.9204  164.4205 C.cat   1  UNL1        0.4230
      8 N         141.7707  141.6328  164.7223 N.2     1  UNL1       -0.0678
      9 C         141.6414  141.3663  166.1928 C.2     1  UNL1        0.1887
     10 C         142.1393  140.2463  167.0574 C.2     1  UNL1        0.0433
     11 C         141.8493  140.2492  168.5291 C.2     1  UNL1        0.0706
     12 C         141.0616  141.3721  169.1361 C.2     1  UNL1       -0.0142
     13 C         140.5637  142.4921  168.2715 C.3     1  UNL1        0.0931
     14 C         140.8537  142.4892  166.7998 C.2     1  UNL1        0.1744
     15 N         140.4960  143.4497  165.7045 N.2     1  UNL1       -0.0716
     16 C         142.3472  139.1291  169.3938 C.3     1  UNL1        0.4184
     17 F         142.8450  138.0091  170.2585 F       1  UNL1       -0.1659
     18 F         141.6291  139.7190  170.5712 F       1  UNL1       -0.1659
     19 F         143.0653  138.5393  168.2163 F       1  UNL1       -0.1659
     20 C         140.5826  145.5004  159.0249 C.3     1  UNL1        0.0971
     21 C         140.6787  144.6648  157.7828 C.3     1  UNL1        0.1264
     22 O         140.1446  146.8898  155.8426 O.2     1  UNL1       -0.2670
     23 C         139.2441  145.6906  155.8750 C.ar    1  UNL1        0.2611
     24 C         138.0766  145.6038  154.9373 C.ar    1  UNL1        0.0623
     25 C         137.1761  144.4047  154.9696 C.ar    1  UNL1        0.0255
     26 C         137.4432  143.2921  155.9397 C.ar    1  UNL1        0.0974
     27 N         136.5427  142.0930  155.9721 N.ar    1  UNL1       -0.2400
     28 C         136.8098  140.9805  156.9422 C.ar    1  UNL1        0.1285
     29 C         137.9773  141.0672  157.8799 C.ar    1  UNL1        0.1607
     30 F         138.2443  139.9547  158.8500 F       1  UNL1       -0.2025
     31 C         138.8778  142.2664  157.8475 C.ar    1  UNL1        0.0500
     32 C         138.6107  143.3789  156.8775 C.ar    1  UNL1        0.0824
     33 N         139.5112  144.5781  156.8451 N.ar    1  UNL1       -0.2926
@<TRIPOS>BOND
     1    22    23    2
     2    23    24   ar
     3    24    25   ar
     4    25    26   ar
     5    26    27   ar
     6    27    28   ar
     7    28    29   ar
     8    29    30    1
     9    29    31   ar
    10    31    32   ar
    11    32    33   ar
    12    33    21    1
    13    21    20    1
    14    20     1    1
    15     1     2    1
    16     2     3    1
    17     3     4    1
    18     4     7    1
    19     7     8    2
    20     8     9    1
    21     9    10    2
    22    10    11    1
    23    11    16    1
    24    16    17    1
    25    16    18    1
    26    16    19    1
    27    11    12    2
    28    12    13    1
    29    13    14    1
    30    14    15    2
    31     4     5    1
    32     5     6    1
    33    33    23   ar
    34     6     1    1
    35    32    26   ar
    36    15     7    1
    37    14     9    1
