@<TRIPOS>MOLECULE
*****
 34 36 0 0 0
SMALL
GASTEIGER

@<TRIPOS>ATOM
      1 C         140.3648  139.8311  166.9131 C.ar    1  UNL1        0.0764
      2 C         140.1570  139.0619  165.6421 C.ar    1  UNL1        0.0522
      3 C         138.9193  138.2343  165.4601 C.ar    1  UNL1        0.1515
      4 N         137.8894  138.1758  166.5492 N.ar    1  UNL1       -0.1329
      5 N         138.0972  138.9449  167.8201 N.ar    1  UNL1       -0.1409
      6 C         139.3349  139.7725  168.0020 C.ar    1  UNL1        0.1691
      7 C         139.5426  140.5417  169.2730 C.2     1  UNL1        0.2635
      8 N         139.2721  139.8902  170.5967 N.am    1  UNL1       -0.3240
      9 O         140.0210  141.9624  169.2202 O.2     1  UNL1       -0.2686
     10 H         138.9581  138.9577  170.6313 H       1  UNL1        0.1453
     11 H         139.4084  140.3950  171.4308 H       1  UNL1        0.1453
     12 N         141.6025  140.6587  167.0950 N.pl3   1  UNL1       -0.2965
     13 H         142.2475  140.4305  167.8029 H       1  UNL1        0.1537
     14 C         140.9625  143.8266  164.7918 C.ar    1  UNL1        0.0873
     15 N         140.7077  142.6514  165.6884 N.ar    1  UNL1       -0.2327
     16 C         141.8573  141.8340  166.1984 C.ar    1  UNL1        0.1319
     17 C         143.2618  142.1918  165.8118 C.ar    1  UNL1        0.0367
     18 C         143.5166  143.3670  164.9153 C.ar    1  UNL1        0.0337
     19 C         142.3669  144.1844  164.4053 C.ar    1  UNL1        0.1537
     20 F         142.6218  145.3597  163.5086 F       1  UNL1       -0.2029
     21 C         139.7993  145.1122  162.8569 C.3     1  UNL1        0.0064
     22 C         139.8128  144.6441  164.2818 C.3     1  UNL1        0.0426
     23 C         138.6767  144.9933  165.1968 C.3     1  UNL1        0.0064
     24 N         138.7115  137.4651  164.1893 N.pl3   1  UNL1       -0.3168
     25 H         138.4011  136.5315  164.2240 H       1  UNL1        0.1482
     26 C         138.9766  138.1185  162.8654 C.3     1  UNL1        0.0895
     27 C         137.9584  139.0444  162.2687 C.3     1  UNL1        0.0530
     28 C         138.2235  139.6978  160.9447 C.3     1  UNL1        0.1440
     29 O         139.5068  139.4253  160.2175 O.3     1  UNL1       -0.3522
     30 C         140.5250  138.4994  160.8141 C.3     1  UNL1        0.1592
     31 C         140.2599  137.8460  162.1380 C.3     1  UNL1        0.0990
     32 N         141.2781  136.9201  162.7347 N.3     1  UNL1       -0.3189
     33 H         140.9357  136.5693  163.6292 H       1  UNL1        0.1189
     34 H         142.1527  137.4245  162.8796 H       1  UNL1        0.1189
@<TRIPOS>BOND
     1    21    22    1
     2    22    23    1
     3    22    14    1
     4    14    15   ar
     5    15    16   ar
     6    16    12    1
     7    12     1    1
     8     1     2   ar
     9     2     3   ar
    10     3    24    1
    11    26    24    1
    12    26    27    1
    13    27    28    1
    14    28    29    1
    15    29    30    1
    16    30    31    1
    17    31    32    1
    18     3     4   ar
    19     4     5   ar
    20     5     6   ar
    21     6     7    1
    22     7     8   am
    23     7     9    2
    24    16    17   ar
    25    17    18   ar
    26    18    19   ar
    27    19    20    1
    28    19    14   ar
    29     6     1   ar
    30    31    26    1
    31    12    13    1
    32    24    25    1
    33    32    33    1
    34    32    34    1
    35     8    10    1
    36     8    11    1
@<TRIPOS>MOLECULE
*****
 34 36 0 0 0
SMALL
GASTEIGER

@<TRIPOS>ATOM
      1 C         141.2386  140.4384  168.3136 C.ar    1  UNL1        0.0764
      2 C         140.2688  140.0159  167.2500 C.ar    1  UNL1        0.0522
      3 C         138.8854  139.5766  167.6283 C.ar    1  UNL1        0.1515
      4 N         138.4717  139.5597  169.0701 N.ar    1  UNL1       -0.1329
      5 N         139.4415  139.9821  170.1335 N.ar    1  UNL1       -0.1409
      6 C         140.8250  140.4215  169.7553 C.ar    1  UNL1        0.1691
      7 C         141.7948  140.8439  170.8188 C.2     1  UNL1        0.2635
      8 N         142.9712  139.9740  171.1495 N.am    1  UNL1       -0.3240
      9 O         141.5882  142.1363  171.5517 O.2     1  UNL1       -0.2686
     10 H         143.1068  139.1258  170.6684 H       1  UNL1        0.1453
     11 H         143.6077  140.2513  171.8475 H       1  UNL1        0.1453
     12 N         142.6221  140.8777  167.9353 N.pl3   1  UNL1       -0.2965
     13 H         143.3241  140.9396  168.6228 H       1  UNL1        0.1537
     14 C         142.9406  142.9383  164.5586 C.ar    1  UNL1        0.0873
     15 N         142.6268  142.5933  165.9842 N.ar    1  UNL1       -0.2327
     16 C         142.9359  141.2227  166.5096 C.ar    1  UNL1        0.1319
     17 C         143.5587  140.1972  165.6094 C.ar    1  UNL1        0.0367
     18 C         143.8725  140.5423  164.1838 C.ar    1  UNL1        0.0337
     19 C         143.5634  141.9128  163.6584 C.ar    1  UNL1        0.1537
     20 F         143.8773  142.2578  162.2327 F       1  UNL1       -0.2029
     21 C         141.2076  144.7689  163.9295 C.3     1  UNL1        0.0064
     22 C         142.6315  144.3088  164.0331 C.3     1  UNL1        0.0426
     23 C         143.7464  145.2194  163.6113 C.3     1  UNL1        0.0064
     24 N         137.9156  139.1541  166.5648 N.pl3   1  UNL1       -0.3168
     25 H         136.9778  138.9680  166.7996 H       1  UNL1        0.1482
     26 C         138.3746  139.0153  165.1436 C.3     1  UNL1        0.0895
     27 C         139.0039  137.7349  164.6804 C.3     1  UNL1        0.0530
     28 C         139.4630  137.5961  163.2591 C.3     1  UNL1        0.1440
     29 O         139.2927  138.7376  162.3010 O.3     1  UNL1       -0.3522
     30 C         138.6634  140.0180  162.7643 C.3     1  UNL1        0.1592
     31 C         138.2043  140.1569  164.1855 C.3     1  UNL1        0.0990
     32 N         137.5750  141.4372  164.6487 N.3     1  UNL1       -0.3189
     33 H         137.3255  141.3563  165.6344 H       1  UNL1        0.1189
     34 H         136.7355  141.6216  164.0995 H       1  UNL1        0.1189
@<TRIPOS>BOND
     1    21    22    1
     2    22    23    1
     3    22    14    1
     4    14    15   ar
     5    15    16   ar
     6    16    12    1
     7    12     1    1
     8     1     2   ar
     9     2     3   ar
    10     3    24    1
    11    26    24    1
    12    26    27    1
    13    27    28    1
    14    28    29    1
    15    29    30    1
    16    30    31    1
    17    31    32    1
    18     3     4   ar
    19     4     5   ar
    20     5     6   ar
    21     6     7    1
    22     7     8   am
    23     7     9    2
    24    16    17   ar
    25    17    18   ar
    26    18    19   ar
    27    19    20    1
    28    19    14   ar
    29     6     1   ar
    30    31    26    1
    31    12    13    1
    32    24    25    1
    33    32    33    1
    34    32    34    1
    35     8    10    1
    36     8    11    1
@<TRIPOS>MOLECULE
*****
 34 36 0 0 0
SMALL
GASTEIGER

@<TRIPOS>ATOM
      1 C         143.6254  141.4333  165.3830 C.ar    1  UNL1        0.0764
      2 C         142.8782  141.1101  166.6429 C.ar    1  UNL1        0.0522
      3 C         142.7274  139.6832  167.0803 C.ar    1  UNL1        0.1515
      4 N         143.3237  138.5796  166.2577 N.ar    1  UNL1       -0.1329
      5 N         144.0708  138.9029  164.9979 N.ar    1  UNL1       -0.1409
      6 C         144.2217  140.3297  164.5605 C.ar    1  UNL1        0.1691
      7 C         144.9689  140.6530  163.3006 C.2     1  UNL1        0.2635
      8 N         144.6332  139.9384  162.0252 N.am    1  UNL1       -0.3240
      9 O         146.0517  141.6909  163.3161 O.2     1  UNL1       -0.2686
     10 H         143.9224  139.2572  162.0150 H       1  UNL1        0.1453
     11 H         145.1235  140.1505  161.1983 H       1  UNL1        0.1453
     12 N         143.7762  142.8602  164.9456 N.pl3   1  UNL1       -0.2965
     13 H         144.6237  143.3361  165.1021 H       1  UNL1        0.1537
     14 C         140.1252  144.2272  164.2033 C.ar    1  UNL1        0.0873
     15 N         141.2656  143.5254  164.8791 N.ar    1  UNL1       -0.2327
     16 C         142.6357  143.5620  164.2697 C.ar    1  UNL1        0.1319
     17 C         142.8654  144.3003  162.9844 C.ar    1  UNL1        0.0367
     18 C         141.7249  145.0021  162.3085 C.ar    1  UNL1        0.0337
     19 C         140.3548  144.9655  162.9180 C.ar    1  UNL1        0.1537
     20 F         139.2143  145.6673  162.2420 F       1  UNL1       -0.2029
     21 C         137.7335  143.2173  164.3037 C.3     1  UNL1        0.0064
     22 C         138.7550  144.1906  164.8127 C.3     1  UNL1        0.0426
     23 C         138.4064  145.1273  165.9311 C.3     1  UNL1        0.0064
     24 N         141.9802  139.3599  168.3401 N.pl3   1  UNL1       -0.3168
     25 H         141.7721  138.4237  168.5625 H       1  UNL1        0.1482
     26 C         141.5502  140.4630  169.2611 C.3     1  UNL1        0.0895
     27 C         140.3981  141.3472  168.8856 C.3     1  UNL1        0.0530
     28 C         139.9681  142.4504  169.8067 C.3     1  UNL1        0.1440
     29 O         140.6902  142.6693  171.1030 O.3     1  UNL1       -0.3522
     30 C         141.8423  141.7852  171.4784 C.3     1  UNL1        0.1592
     31 C         142.2723  140.6821  170.5575 C.3     1  UNL1        0.0990
     32 N         143.4244  139.7979  170.9329 N.3     1  UNL1       -0.3189
     33 H         143.5775  139.1081  170.1973 H       1  UNL1        0.1189
     34 H         143.2146  139.3197  171.8091 H       1  UNL1        0.1189
@<TRIPOS>BOND
     1    21    22    1
     2    22    23    1
     3    22    14    1
     4    14    15   ar
     5    15    16   ar
     6    16    12    1
     7    12     1    1
     8     1     2   ar
     9     2     3   ar
    10     3    24    1
    11    26    24    1
    12    26    27    1
    13    27    28    1
    14    28    29    1
    15    29    30    1
    16    30    31    1
    17    31    32    1
    18     3     4   ar
    19     4     5   ar
    20     5     6   ar
    21     6     7    1
    22     7     8   am
    23     7     9    2
    24    16    17   ar
    25    17    18   ar
    26    18    19   ar
    27    19    20    1
    28    19    14   ar
    29     6     1   ar
    30    31    26    1
    31    12    13    1
    32    24    25    1
    33    32    33    1
    34    32    34    1
    35     8    10    1
    36     8    11    1
@<TRIPOS>MOLECULE
*****
 34 36 0 0 0
SMALL
GASTEIGER

@<TRIPOS>ATOM
      1 C         140.5476  139.2841  165.5221 C.ar    1  UNL1        0.0764
      2 C         140.3531  139.9010  166.8755 C.ar    1  UNL1        0.0522
      3 C         139.1567  139.5335  167.7023 C.ar    1  UNL1        0.1515
      4 N         138.1548  138.5491  167.1756 N.ar    1  UNL1       -0.1329
      5 N         138.3494  137.9322  165.8223 N.ar    1  UNL1       -0.1409
      6 C         139.5458  138.2997  164.9955 C.ar    1  UNL1        0.1691
      7 C         139.7404  137.6828  163.6421 C.2     1  UNL1        0.2635
      8 N         138.5818  137.5688  162.6963 N.am    1  UNL1       -0.3240
      9 O         141.0936  137.1800  163.2346 O.2     1  UNL1       -0.2686
     10 H         137.6937  137.8989  162.9637 H       1  UNL1        0.1453
     11 H         138.7095  137.1639  161.8080 H       1  UNL1        0.1453
     12 N         141.7440  139.6517  164.6953 N.pl3   1  UNL1       -0.2965
     13 H         142.2515  138.9512  164.2252 H       1  UNL1        0.1537
     14 C         141.5777  143.5790  164.1489 C.ar    1  UNL1        0.0873
     15 N         141.1546  142.1442  164.2593 N.ar    1  UNL1       -0.2327
     16 C         142.1672  141.0865  164.5848 C.ar    1  UNL1        0.1319
     17 C         143.6030  141.4637  164.7999 C.ar    1  UNL1        0.0367
     18 C         144.0261  142.8985  164.6894 C.ar    1  UNL1        0.0337
     19 C         143.0135  143.9561  164.3639 C.ar    1  UNL1        0.1537
     20 F         143.4367  145.3910  164.2535 F       1  UNL1       -0.2029
     21 C         140.7397  145.4921  162.6037 C.3     1  UNL1        0.0064
     22 C         140.5651  144.6366  163.8234 C.3     1  UNL1        0.0426
     23 C         139.3779  144.8388  164.7175 C.3     1  UNL1        0.0064
     24 N         138.9621  140.1504  169.0556 N.pl3   1  UNL1       -0.3168
     25 H         138.1544  139.9437  169.5792 H       1  UNL1        0.1482
     26 C         139.9981  141.0821  169.6111 C.3     1  UNL1        0.0895
     27 C         139.8822  142.5589  169.3753 C.3     1  UNL1        0.0530
     28 C         140.9183  143.4906  169.9309 C.3     1  UNL1        0.1440
     29 O         142.0701  142.9455  170.7221 O.3     1  UNL1       -0.3522
     30 C         142.1859  141.4687  170.9579 C.3     1  UNL1        0.1592
     31 C         141.1500  140.5370  170.4024 C.3     1  UNL1        0.0990
     32 N         141.2658  139.0601  170.6382 N.3     1  UNL1       -0.3189
     33 H         140.4822  138.5823  170.1931 H       1  UNL1        0.1189
     34 H         141.2524  138.8738  171.6409 H       1  UNL1        0.1189
@<TRIPOS>BOND
     1    21    22    1
     2    22    23    1
     3    22    14    1
     4    14    15   ar
     5    15    16   ar
     6    16    12    1
     7    12     1    1
     8     1     2   ar
     9     2     3   ar
    10     3    24    1
    11    26    24    1
    12    26    27    1
    13    27    28    1
    14    28    29    1
    15    29    30    1
    16    30    31    1
    17    31    32    1
    18     3     4   ar
    19     4     5   ar
    20     5     6   ar
    21     6     7    1
    22     7     8   am
    23     7     9    2
    24    16    17   ar
    25    17    18   ar
    26    18    19   ar
    27    19    20    1
    28    19    14   ar
    29     6     1   ar
    30    31    26    1
    31    12    13    1
    32    24    25    1
    33    32    33    1
    34    32    34    1
    35     8    10    1
    36     8    11    1
@<TRIPOS>MOLECULE
*****
 34 36 0 0 0
SMALL
GASTEIGER

@<TRIPOS>ATOM
      1 C         140.1660  139.9515  166.9442 C.ar    1  UNL1        0.0764
      2 C         139.9713  139.1976  165.6621 C.ar    1  UNL1        0.0522
      3 C         138.7959  138.2793  165.5032 C.ar    1  UNL1        0.1515
      4 N         137.8153  138.1149  166.6264 N.ar    1  UNL1       -0.1329
      5 N         138.0101  138.8688  167.9084 N.ar    1  UNL1       -0.1409
      6 C         139.1854  139.7871  168.0673 C.ar    1  UNL1        0.1691
      7 C         139.3802  140.5410  169.3495 C.2     1  UNL1        0.2635
      8 N         139.0375  139.8948  170.6590 N.am    1  UNL1       -0.3240
      9 O         139.9177  141.9412  169.3220 O.2     1  UNL1       -0.2686
     10 H         138.6847  138.9759  170.6770 H       1  UNL1        0.1453
     11 H         139.1653  140.3896  171.5004 H       1  UNL1        0.1453
     12 N         141.3414  140.8698  167.1032 N.pl3   1  UNL1       -0.2965
     13 H         141.8135  140.9204  167.9656 H       1  UNL1        0.1537
     14 C         143.4096  142.1037  163.9488 C.ar    1  UNL1        0.0873
     15 N         142.9535  141.2625  165.1039 N.ar    1  UNL1       -0.2327
     16 C         141.7975  141.7110  165.9480 C.ar    1  UNL1        0.1319
     17 C         141.0976  143.0007  165.6369 C.ar    1  UNL1        0.0367
     18 C         141.5537  143.8419  164.4818 C.ar    1  UNL1        0.0337
     19 C         142.7097  143.3934  163.6377 C.ar    1  UNL1        0.1537
     20 F         143.1658  144.2346  162.4826 F       1  UNL1       -0.2029
     21 C         144.3315  141.1917  161.6975 C.3     1  UNL1        0.0064
     22 C         144.5656  141.6552  163.1047 C.3     1  UNL1        0.0426
     23 C         145.9558  141.6701  163.6679 C.3     1  UNL1        0.0064
     24 N         138.6011  137.5254  164.2212 N.pl3   1  UNL1       -0.3168
     25 H         138.2412  136.6092  164.2387 H       1  UNL1        0.1482
     26 C         138.9548  138.1674  162.9125 C.3     1  UNL1        0.0895
     27 C         137.9973  139.1215  162.2621 C.3     1  UNL1        0.0530
     28 C         138.3511  139.7635  160.9534 C.3     1  UNL1        0.1440
     29 O         139.6622  139.4513  160.2950 O.3     1  UNL1       -0.3522
     30 C         140.6197  138.4972  160.9454 C.3     1  UNL1        0.1592
     31 C         140.2660  137.8552  162.2541 C.3     1  UNL1        0.0990
     32 N         141.2234  136.9011  162.9044 N.3     1  UNL1       -0.3189
     33 H         140.8242  136.5628  163.7799 H       1  UNL1        0.1189
     34 H         142.1038  137.3798  163.0947 H       1  UNL1        0.1189
@<TRIPOS>BOND
     1    21    22    1
     2    22    23    1
     3    22    14    1
     4    14    15   ar
     5    15    16   ar
     6    16    12    1
     7    12     1    1
     8     1     2   ar
     9     2     3   ar
    10     3    24    1
    11    26    24    1
    12    26    27    1
    13    27    28    1
    14    28    29    1
    15    29    30    1
    16    30    31    1
    17    31    32    1
    18     3     4   ar
    19     4     5   ar
    20     5     6   ar
    21     6     7    1
    22     7     8   am
    23     7     9    2
    24    16    17   ar
    25    17    18   ar
    26    18    19   ar
    27    19    20    1
    28    19    14   ar
    29     6     1   ar
    30    31    26    1
    31    12    13    1
    32    24    25    1
    33    32    33    1
    34    32    34    1
    35     8    10    1
    36     8    11    1
@<TRIPOS>MOLECULE
*****
 34 36 0 0 0
SMALL
GASTEIGER

@<TRIPOS>ATOM
      1 C         140.8772  139.4965  165.4796 C.ar    1  UNL1        0.0764
      2 C         141.2549  139.6617  166.9220 C.ar    1  UNL1        0.0522
      3 C         142.5797  139.1578  167.4128 C.ar    1  UNL1        0.1515
      4 N         143.5269  138.4887  166.4612 N.ar    1  UNL1       -0.1329
      5 N         143.1493  138.3236  165.0190 N.ar    1  UNL1       -0.1409
      6 C         141.8244  138.8275  164.5282 C.ar    1  UNL1        0.1691
      7 C         141.4468  138.6624  163.0859 C.2     1  UNL1        0.2635
      8 N         141.6590  139.7911  162.1211 N.am    1  UNL1       -0.3240
      9 O         140.8569  137.3685  162.6085 O.2     1  UNL1       -0.2686
     10 H         142.0461  140.6403  162.4344 H       1  UNL1        0.1453
     11 H         141.4111  139.6827  161.1745 H       1  UNL1        0.1453
     12 N         139.5524  140.0004  164.9889 N.pl3   1  UNL1       -0.2965
     13 H         138.7706  139.4022  164.9806 H       1  UNL1        0.1537
     14 C         140.4823  143.5571  163.4937 C.ar    1  UNL1        0.0873
     15 N         140.6159  142.1417  163.9719 N.ar    1  UNL1       -0.2327
     16 C         139.4188  141.4159  164.5106 C.ar    1  UNL1        0.1319
     17 C         138.0881  142.1056  164.5712 C.ar    1  UNL1        0.0367
     18 C         137.9546  143.5210  164.0930 C.ar    1  UNL1        0.0337
     19 C         139.1517  144.2467  163.5542 C.ar    1  UNL1        0.1537
     20 F         139.0180  145.6622  163.0760 F       1  UNL1       -0.2029
     21 C         142.0332  144.1706  161.5016 C.3     1  UNL1        0.0064
     22 C         141.6794  144.2829  162.9550 C.3     1  UNL1        0.0426
     23 C         142.5227  145.1209  163.8695 C.3     1  UNL1        0.0064
     24 N         142.9574  139.3229  168.8550 N.pl3   1  UNL1       -0.3168
     25 H         143.4639  138.6152  169.3153 H       1  UNL1        0.1482
     26 C         142.5634  140.5662  169.5958 C.3     1  UNL1        0.0895
     27 C         143.3851  141.8135  169.4581 C.3     1  UNL1        0.0530
     28 C         142.9910  143.0568  170.1990 C.3     1  UNL1        0.1440
     29 O         141.7753  143.0528  171.0775 O.3     1  UNL1       -0.3522
     30 C         140.9536  141.8055  171.2153 C.3     1  UNL1        0.1592
     31 C         141.3476  140.5622  170.4744 C.3     1  UNL1        0.0990
     32 N         140.5259  139.3149  170.6121 N.3     1  UNL1       -0.3189
     33 H         140.9355  138.5734  170.0439 H       1  UNL1        0.1189
     34 H         139.5735  139.4985  170.2963 H       1  UNL1        0.1189
@<TRIPOS>BOND
     1    21    22    1
     2    22    23    1
     3    22    14    1
     4    14    15   ar
     5    15    16   ar
     6    16    12    1
     7    12     1    1
     8     1     2   ar
     9     2     3   ar
    10     3    24    1
    11    26    24    1
    12    26    27    1
    13    27    28    1
    14    28    29    1
    15    29    30    1
    16    30    31    1
    17    31    32    1
    18     3     4   ar
    19     4     5   ar
    20     5     6   ar
    21     6     7    1
    22     7     8   am
    23     7     9    2
    24    16    17   ar
    25    17    18   ar
    26    18    19   ar
    27    19    20    1
    28    19    14   ar
    29     6     1   ar
    30    31    26    1
    31    12    13    1
    32    24    25    1
    33    32    33    1
    34    32    34    1
    35     8    10    1
    36     8    11    1
@<TRIPOS>MOLECULE
*****
 34 36 0 0 0
SMALL
GASTEIGER

@<TRIPOS>ATOM
      1 C         138.1351  140.1679  163.7536 C.ar    1  UNL1        0.0764
      2 C         138.1348  140.2365  165.2520 C.ar    1  UNL1        0.0522
      3 C         138.4456  139.0109  166.0590 C.ar    1  UNL1        0.1515
      4 N         138.7567  137.7166  165.3675 N.ar    1  UNL1       -0.1329
      5 N         138.7570  137.6480  163.8691 N.ar    1  UNL1       -0.1409
      6 C         138.4462  138.8736  163.0621 C.ar    1  UNL1        0.1691
      7 C         138.4465  138.8050  161.5636 C.2     1  UNL1        0.2635
      8 N         139.5692  138.1177  160.8446 N.am    1  UNL1       -0.3240
      9 O         137.3240  139.4236  160.7843 O.2     1  UNL1       -0.2686
     10 H         140.3059  137.7117  161.3561 H       1  UNL1        0.1453
     11 H         139.5694  138.0727  159.8611 H       1  UNL1        0.1453
     12 N         137.8243  141.3935  162.9466 N.pl3   1  UNL1       -0.2965
     13 H         137.0202  141.4185  162.3792 H       1  UNL1        0.1537
     14 C         141.1027  143.5835  163.4009 C.ar    1  UNL1        0.0873
     15 N         140.1882  142.3960  163.3433 N.ar    1  UNL1       -0.2327
     16 C         138.7388  142.5812  163.0041 C.ar    1  UNL1        0.1319
     17 C         138.2040  143.9540  162.7225 C.ar    1  UNL1        0.0367
     18 C         139.1185  145.1415  162.7801 C.ar    1  UNL1        0.0337
     19 C         140.5678  144.9563  163.1193 C.ar    1  UNL1        0.1537
     20 F         141.4823  146.1439  163.1768 F       1  UNL1       -0.2029
     21 C         143.6061  143.6965  162.7154 C.3     1  UNL1        0.0064
     22 C         142.5521  143.3983  163.7400 C.3     1  UNL1        0.0426
     23 C         142.9473  142.9149  165.1038 C.3     1  UNL1        0.0064
     24 N         138.4453  139.0794  167.5574 N.pl3   1  UNL1       -0.3168
     25 H         137.7719  138.5794  168.0729 H       1  UNL1        0.1482
     26 C         139.4709  139.9099  168.2703 C.3     1  UNL1        0.0895
     27 C         140.7251  140.3253  167.5601 C.3     1  UNL1        0.0530
     28 C         141.7508  141.1559  168.2731 C.3     1  UNL1        0.1440
     29 O         141.5222  141.5710  169.6963 O.3     1  UNL1       -0.3522
     30 C         140.2680  141.1556  170.4065 C.3     1  UNL1        0.1592
     31 C         139.2424  140.3251  169.6936 C.3     1  UNL1        0.0990
     32 N         137.9882  139.9097  170.4038 N.3     1  UNL1       -0.3189
     33 H         137.4088  139.3545  169.7741 H       1  UNL1        0.1189
     34 H         137.4727  140.7396  170.6970 H       1  UNL1        0.1189
@<TRIPOS>BOND
     1    21    22    1
     2    22    23    1
     3    22    14    1
     4    14    15   ar
     5    15    16   ar
     6    16    12    1
     7    12     1    1
     8     1     2   ar
     9     2     3   ar
    10     3    24    1
    11    26    24    1
    12    26    27    1
    13    27    28    1
    14    28    29    1
    15    29    30    1
    16    30    31    1
    17    31    32    1
    18     3     4   ar
    19     4     5   ar
    20     5     6   ar
    21     6     7    1
    22     7     8   am
    23     7     9    2
    24    16    17   ar
    25    17    18   ar
    26    18    19   ar
    27    19    20    1
    28    19    14   ar
    29     6     1   ar
    30    31    26    1
    31    12    13    1
    32    24    25    1
    33    32    33    1
    34    32    34    1
    35     8    10    1
    36     8    11    1
@<TRIPOS>MOLECULE
*****
 34 36 0 0 0
SMALL
GASTEIGER

@<TRIPOS>ATOM
      1 C         138.3058  139.8761  164.5305 C.ar    1  UNL1        0.0764
      2 C         138.4302  139.5667  163.0680 C.ar    1  UNL1        0.0522
      3 C         138.7662  138.1745  162.6220 C.ar    1  UNL1        0.1515
      4 N         138.9778  137.0918  163.6384 N.ar    1  UNL1       -0.1329
      5 N         138.8534  137.4013  165.1008 N.ar    1  UNL1       -0.1409
      6 C         138.5174  138.7935  165.5469 C.ar    1  UNL1        0.1691
      7 C         138.3930  139.1030  167.0094 C.2     1  UNL1        0.2635
      8 N         137.3984  138.3601  167.8512 N.am    1  UNL1       -0.3240
      9 O         139.2633  140.1554  167.6299 O.2     1  UNL1       -0.2686
     10 H         136.8272  137.6694  167.4439 H       1  UNL1        0.1453
     11 H         137.3167  138.5632  168.8111 H       1  UNL1        0.1453
     12 N         137.9698  141.2683  164.9766 N.pl3   1  UNL1       -0.2965
     13 H         137.1082  141.4497  165.4170 H       1  UNL1        0.1537
     14 C         141.3966  143.2418  164.6415 C.ar    1  UNL1        0.0873
     15 N         140.4198  142.1260  164.8664 N.ar    1  UNL1       -0.2327
     16 C         138.9467  142.3842  164.7516 C.ar    1  UNL1        0.1319
     17 C         138.4504  143.7584  164.4119 C.ar    1  UNL1        0.0367
     18 C         139.4272  144.8742  164.1869 C.ar    1  UNL1        0.0337
     19 C         140.9003  144.6159  164.3017 C.ar    1  UNL1        0.1537
     20 F         141.8772  145.7318  164.0768 F       1  UNL1       -0.2029
     21 C         143.4665  142.6214  166.0839 C.3     1  UNL1        0.0064
     22 C         142.8698  142.9835  164.7562 C.3     1  UNL1        0.0426
     23 C         143.7462  143.0874  163.5434 C.3     1  UNL1        0.0064
     24 N         138.8906  137.8650  161.1596 N.pl3   1  UNL1       -0.3168
     25 H         138.2362  137.2719  160.7245 H       1  UNL1        0.1482
     26 C         140.0120  138.4591  160.3600 C.3     1  UNL1        0.0895
     27 C         139.7101  139.3394  159.1836 C.3     1  UNL1        0.0530
     28 C         140.8316  139.9335  158.3841 C.3     1  UNL1        0.1440
     29 O         142.2550  139.6473  158.7609 O.3     1  UNL1       -0.3522
     30 C         142.5569  138.7670  159.9372 C.3     1  UNL1        0.1592
     31 C         141.4355  138.1729  160.7368 C.3     1  UNL1        0.0990
     32 N         141.7374  137.2925  161.9132 N.3     1  UNL1       -0.3189
     33 H         140.8639  136.9790  162.3363 H       1  UNL1        0.1189
     34 H         142.2790  137.8170  162.6002 H       1  UNL1        0.1189
@<TRIPOS>BOND
     1    21    22    1
     2    22    23    1
     3    22    14    1
     4    14    15   ar
     5    15    16   ar
     6    16    12    1
     7    12     1    1
     8     1     2   ar
     9     2     3   ar
    10     3    24    1
    11    26    24    1
    12    26    27    1
    13    27    28    1
    14    28    29    1
    15    29    30    1
    16    30    31    1
    17    31    32    1
    18     3     4   ar
    19     4     5   ar
    20     5     6   ar
    21     6     7    1
    22     7     8   am
    23     7     9    2
    24    16    17   ar
    25    17    18   ar
    26    18    19   ar
    27    19    20    1
    28    19    14   ar
    29     6     1   ar
    30    31    26    1
    31    12    13    1
    32    24    25    1
    33    32    33    1
    34    32    34    1
    35     8    10    1
    36     8    11    1
@<TRIPOS>MOLECULE
*****
 34 36 0 0 0
SMALL
GASTEIGER

@<TRIPOS>ATOM
      1 C         141.7410  139.7223  167.2312 C.ar    1  UNL1        0.0764
      2 C         140.6048  139.6265  166.2565 C.ar    1  UNL1        0.0522
      3 C         139.1900  139.5995  166.7543 C.ar    1  UNL1        0.1515
      4 N         138.9115  139.6683  168.2266 N.ar    1  UNL1       -0.1329
      5 N         140.0477  139.7642  169.2012 N.ar    1  UNL1       -0.1409
      6 C         141.4625  139.7912  168.7034 C.ar    1  UNL1        0.1691
      7 C         142.5987  139.8870  169.6781 C.2     1  UNL1        0.2635
      8 N         142.9453  138.7122  170.5439 N.am    1  UNL1       -0.3240
      9 O         143.3883  141.1577  169.7869 O.2     1  UNL1       -0.2686
     10 H         142.4270  137.8782  170.4725 H       1  UNL1        0.1453
     11 H         143.6910  138.7752  171.1835 H       1  UNL1        0.1453
     12 N         143.1558  139.7493  166.7335 N.pl3   1  UNL1       -0.2965
     13 H         143.8545  139.2441  167.2086 H       1  UNL1        0.1537
     14 C         143.3012  142.7251  164.1116 C.ar    1  UNL1        0.0873
     15 N         142.9511  141.9283  165.3333 N.ar    1  UNL1       -0.2327
     16 C         143.5059  140.5461  165.5117 C.ar    1  UNL1        0.1319
     17 C         144.4109  139.9608  164.4685 C.ar    1  UNL1        0.0367
     18 C         144.7610  140.7576  163.2468 C.ar    1  UNL1        0.0337
     19 C         144.2062  142.1397  163.0684 C.ar    1  UNL1        0.1537
     20 F         144.5563  142.9365  161.8467 F       1  UNL1       -0.2029
     21 C         143.6587  145.2960  163.9997 C.3     1  UNL1        0.0064
     22 C         142.7464  144.1072  163.9332 C.3     1  UNL1        0.0426
     23 C         141.2793  144.3006  163.6884 C.3     1  UNL1        0.0064
     24 N         138.0538  139.5036  165.7797 N.pl3   1  UNL1       -0.3168
     25 H         137.2763  138.9355  165.9845 H       1  UNL1        0.1482
     26 C         138.1023  140.2733  164.4932 C.3     1  UNL1        0.0895
     27 C         137.8694  141.7551  164.4965 C.3     1  UNL1        0.0530
     28 C         137.9179  142.5249  163.2099 C.3     1  UNL1        0.1440
     29 O         138.1992  141.8128  161.9201 O.3     1  UNL1       -0.3522
     30 C         138.4321  140.3310  161.9168 C.3     1  UNL1        0.1592
     31 C         138.3837  139.5612  163.2033 C.3     1  UNL1        0.0990
     32 N         138.6165  138.0794  163.2000 N.3     1  UNL1       -0.3189
     33 H         138.5472  137.7222  164.1529 H       1  UNL1        0.1189
     34 H         139.5463  137.8822  162.8297 H       1  UNL1        0.1189
@<TRIPOS>BOND
     1    21    22    1
     2    22    23    1
     3    22    14    1
     4    14    15   ar
     5    15    16   ar
     6    16    12    1
     7    12     1    1
     8     1     2   ar
     9     2     3   ar
    10     3    24    1
    11    26    24    1
    12    26    27    1
    13    27    28    1
    14    28    29    1
    15    29    30    1
    16    30    31    1
    17    31    32    1
    18     3     4   ar
    19     4     5   ar
    20     5     6   ar
    21     6     7    1
    22     7     8   am
    23     7     9    2
    24    16    17   ar
    25    17    18   ar
    26    18    19   ar
    27    19    20    1
    28    19    14   ar
    29     6     1   ar
    30    31    26    1
    31    12    13    1
    32    24    25    1
    33    32    33    1
    34    32    34    1
    35     8    10    1
    36     8    11    1
