@<TRIPOS>MOLECULE
*****
 20 22 0 0 0
SMALL
GASTEIGER

@<TRIPOS>ATOM
      1 C         140.8239  144.4733  159.7079 C.ar    1  UNL1        0.1401
      2 C         139.8595  143.8439  158.7468 C.ar    1  UNL1        0.0370
      3 C         138.8776  142.8193  159.2325 C.ar    1  UNL1        0.0047
      4 C         138.8601  142.4240  160.6793 C.ar    1  UNL1        0.0193
      5 C         139.8244  143.0534  161.6405 C.ar    1  UNL1        0.0849
      6 N         139.8069  142.6582  163.0874 N.ar    1  UNL1       -0.2370
      7 C         140.7712  143.2876  164.0485 C.ar    1  UNL1        0.1228
      8 C         141.7532  144.3122  163.5628 C.ar    1  UNL1        0.0277
      9 C         141.7707  144.7075  162.1160 C.ar    1  UNL1        0.0067
     10 C         140.8063  144.0781  161.1548 C.ar    1  UNL1        0.0517
     11 C         141.8938  145.8183  157.7595 C.3     1  UNL1        0.2525
     12 O         141.8058  145.4980  159.2222 O.3     1  UNL1       -0.4714
     13 C         140.7537  142.8923  165.4955 C.1     1  UNL1       -0.0404
     14 C         140.7362  142.4971  166.9423 C.1     1  UNL1       -0.0567
     15 C         140.7188  142.1018  168.3892 C.ar    1  UNL1        0.0612
     16 C         140.0540  140.8246  168.8098 C.ar    1  UNL1        0.0114
     17 C         140.0366  140.4293  170.2567 C.ar    1  UNL1        0.0213
     18 C         140.6838  141.3113  171.2830 C.ar    1  UNL1        0.0989
     19 N         141.3485  142.5884  170.8624 N.ar    1  UNL1       -0.2417
     20 C         141.3660  142.9837  169.4155 C.ar    1  UNL1        0.1071
@<TRIPOS>BOND
     1    11    12    1
     2    12     1    1
     3     1     2   ar
     4     2     3   ar
     5     3     4   ar
     6     4     5   ar
     7     5     6   ar
     8     6     7   ar
     9     7    13    1
    10    13    14    3
    11    14    15    1
    12    15    16   ar
    13    16    17   ar
    14    17    18   ar
    15    18    19   ar
    16    19    20   ar
    17     7     8   ar
    18     8     9   ar
    19     9    10   ar
    20    10     1   ar
    21    10     5   ar
    22    20    15   ar
@<TRIPOS>MOLECULE
*****
 20 22 0 0 0
SMALL
GASTEIGER

@<TRIPOS>ATOM
      1 C         139.9751  141.1349  167.9286 C.ar    1  UNL1        0.1401
      2 C         139.2251  139.8869  168.2889 C.ar    1  UNL1        0.0370
      3 C         138.4750  139.1312  167.2323 C.ar    1  UNL1        0.0047
      4 C         138.4750  139.6236  165.8154 C.ar    1  UNL1        0.0193
      5 C         139.2250  140.8716  165.4551 C.ar    1  UNL1        0.0849
      6 N         139.2250  141.3640  164.0382 N.ar    1  UNL1       -0.2370
      7 C         139.9750  142.6120  163.6779 C.ar    1  UNL1        0.1228
      8 C         140.7251  143.3677  164.7345 C.ar    1  UNL1        0.0277
      9 C         140.7251  142.8754  166.1513 C.ar    1  UNL1        0.0067
     10 C         139.9751  141.6273  166.5117 C.ar    1  UNL1        0.0517
     11 C         139.9835  142.5164  170.1289 C.3     1  UNL1        0.2525
     12 O         140.7252  141.8906  168.9852 O.3     1  UNL1       -0.4714
     13 C         139.9750  143.1044  162.2610 C.1     1  UNL1       -0.0404
     14 C         139.9750  143.5967  160.8441 C.1     1  UNL1       -0.0567
     15 C         139.9750  144.0890  159.4272 C.ar    1  UNL1        0.0612
     16 C         140.6389  145.3900  159.0852 C.ar    1  UNL1        0.0114
     17 C         140.6389  145.8823  157.6684 C.ar    1  UNL1        0.0213
     18 C         139.9749  145.0738  156.5934 C.ar    1  UNL1        0.0989
     19 N         139.3110  143.7729  156.9354 N.ar    1  UNL1       -0.2417
     20 C         139.3110  143.2805  158.3523 C.ar    1  UNL1        0.1071
@<TRIPOS>BOND
     1    11    12    1
     2    12     1    1
     3     1     2   ar
     4     2     3   ar
     5     3     4   ar
     6     4     5   ar
     7     5     6   ar
     8     6     7   ar
     9     7    13    1
    10    13    14    3
    11    14    15    1
    12    15    16   ar
    13    16    17   ar
    14    17    18   ar
    15    18    19   ar
    16    19    20   ar
    17     7     8   ar
    18     8     9   ar
    19     9    10   ar
    20    10     1   ar
    21    10     5   ar
    22    20    15   ar
@<TRIPOS>MOLECULE
*****
 20 22 0 0 0
SMALL
GASTEIGER

@<TRIPOS>ATOM
      1 C         144.5790  142.7381  162.6836 C.ar    1  UNL1        0.1401
      2 C         145.1054  142.3625  164.0370 C.ar    1  UNL1        0.0370
      3 C         145.2409  140.9170  164.4143 C.ar    1  UNL1        0.0047
      4 C         144.8500  139.8473  163.4383 C.ar    1  UNL1        0.0193
      5 C         144.3236  140.2229  162.0849 C.ar    1  UNL1        0.0849
      6 N         143.9326  139.1531  161.1088 N.ar    1  UNL1       -0.2370
      7 C         143.4062  139.5288  159.7554 C.ar    1  UNL1        0.1228
      8 C         143.2707  140.9742  159.3781 C.ar    1  UNL1        0.0277
      9 C         143.6616  142.0440  160.3541 C.ar    1  UNL1        0.0067
     10 C         144.1881  141.6684  161.7076 C.ar    1  UNL1        0.0517
     11 C         143.7217  145.1319  163.2171 C.3     1  UNL1        0.2525
     12 O         144.4434  144.1835  162.3063 O.3     1  UNL1       -0.4714
     13 C         143.0153  138.4590  158.7792 C.1     1  UNL1       -0.0404
     14 C         142.6243  137.3893  157.8031 C.1     1  UNL1       -0.0567
     15 C         142.2333  136.3196  156.8270 C.ar    1  UNL1        0.0612
     16 C         141.1167  136.5627  155.8553 C.ar    1  UNL1        0.0114
     17 C         140.7258  135.4930  154.8791 C.ar    1  UNL1        0.0213
     18 C         141.4514  134.1802  154.8747 C.ar    1  UNL1        0.0989
     19 N         142.5679  133.9371  155.8463 N.ar    1  UNL1       -0.2417
     20 C         142.9589  135.0068  156.8225 C.ar    1  UNL1        0.1071
@<TRIPOS>BOND
     1    11    12    1
     2    12     1    1
     3     1     2   ar
     4     2     3   ar
     5     3     4   ar
     6     4     5   ar
     7     5     6   ar
     8     6     7   ar
     9     7    13    1
    10    13    14    3
    11    14    15    1
    12    15    16   ar
    13    16    17   ar
    14    17    18   ar
    15    18    19   ar
    16    19    20   ar
    17     7     8   ar
    18     8     9   ar
    19     9    10   ar
    20    10     1   ar
    21    10     5   ar
    22    20    15   ar
@<TRIPOS>MOLECULE
*****
 20 22 0 0 0
SMALL
GASTEIGER

@<TRIPOS>ATOM
      1 C         140.2482  144.8361  163.3861 C.ar    1  UNL1        0.1401
      2 C         139.4673  144.8015  164.6663 C.ar    1  UNL1        0.0370
      3 C         138.1518  144.0830  164.7232 C.ar    1  UNL1        0.0047
      4 C         137.6172  143.3992  163.4999 C.ar    1  UNL1        0.0193
      5 C         138.3981  143.4338  162.2197 C.ar    1  UNL1        0.0849
      6 N         137.8634  142.7499  160.9963 N.ar    1  UNL1       -0.2370
      7 C         138.6443  142.7846  159.7161 C.ar    1  UNL1        0.1228
      8 C         139.9598  143.5030  159.6592 C.ar    1  UNL1        0.0277
      9 C         140.4945  144.1869  160.8825 C.ar    1  UNL1        0.0067
     10 C         139.7136  144.1523  162.1628 C.ar    1  UNL1        0.0517
     11 C         142.8056  144.8869  163.8409 C.3     1  UNL1        0.2525
     12 O         141.5637  145.5545  163.3291 O.3     1  UNL1       -0.4714
     13 C         138.1097  142.1007  158.4927 C.1     1  UNL1       -0.0404
     14 C         137.5751  141.4169  157.2694 C.1     1  UNL1       -0.0567
     15 C         137.0405  140.7330  156.0461 C.ar    1  UNL1        0.0612
     16 C         135.6327  140.9915  155.5972 C.ar    1  UNL1        0.0114
     17 C         135.0981  140.3076  154.3739 C.ar    1  UNL1        0.0213
     18 C         135.9712  139.3653  153.5995 C.ar    1  UNL1        0.0989
     19 N         137.3789  139.1068  154.0483 N.ar    1  UNL1       -0.2417
     20 C         137.9136  139.7907  155.2717 C.ar    1  UNL1        0.1071
@<TRIPOS>BOND
     1    11    12    1
     2    12     1    1
     3     1     2   ar
     4     2     3   ar
     5     3     4   ar
     6     4     5   ar
     7     5     6   ar
     8     6     7   ar
     9     7    13    1
    10    13    14    3
    11    14    15    1
    12    15    16   ar
    13    16    17   ar
    14    17    18   ar
    15    18    19   ar
    16    19    20   ar
    17     7     8   ar
    18     8     9   ar
    19     9    10   ar
    20    10     1   ar
    21    10     5   ar
    22    20    15   ar
@<TRIPOS>MOLECULE
*****
 20 22 0 0 0
SMALL
GASTEIGER

@<TRIPOS>ATOM
      1 C         141.8146  140.4312  169.0802 C.ar    1  UNL1        0.1401
      2 C         140.5381  140.4566  169.8675 C.ar    1  UNL1        0.0370
      3 C         139.2346  140.1467  169.1931 C.ar    1  UNL1        0.0047
      4 C         139.2076  139.8114  167.7313 C.ar    1  UNL1        0.0193
      5 C         140.4841  139.7860  166.9440 C.ar    1  UNL1        0.0849
      6 N         140.4571  139.4507  165.4822 N.ar    1  UNL1       -0.2370
      7 C         141.7336  139.4253  164.6948 C.ar    1  UNL1        0.1228
      8 C         143.0371  139.7352  165.3693 C.ar    1  UNL1        0.0277
      9 C         143.0641  140.0705  166.8310 C.ar    1  UNL1        0.0067
     10 C         141.7876  140.0959  167.6184 C.ar    1  UNL1        0.0517
     11 C         143.6126  142.1558  169.8168 C.3     1  UNL1        0.2525
     12 O         143.1181  140.7411  169.7546 O.3     1  UNL1       -0.4714
     13 C         141.7066  139.0899  163.2330 C.1     1  UNL1       -0.0404
     14 C         141.6796  138.7546  161.7712 C.1     1  UNL1       -0.0567
     15 C         141.6526  138.4192  160.3095 C.ar    1  UNL1        0.0612
     16 C         140.4069  138.6570  159.5083 C.ar    1  UNL1        0.0114
     17 C         140.3799  138.3216  158.0466 C.ar    1  UNL1        0.0213
     18 C         141.5986  137.7485  157.3859 C.ar    1  UNL1        0.0989
     19 N         142.8442  137.5108  158.1870 N.ar    1  UNL1       -0.2417
     20 C         142.8713  137.8462  159.6488 C.ar    1  UNL1        0.1071
@<TRIPOS>BOND
     1    11    12    1
     2    12     1    1
     3     1     2   ar
     4     2     3   ar
     5     3     4   ar
     6     4     5   ar
     7     5     6   ar
     8     6     7   ar
     9     7    13    1
    10    13    14    3
    11    14    15    1
    12    15    16   ar
    13    16    17   ar
    14    17    18   ar
    15    18    19   ar
    16    19    20   ar
    17     7     8   ar
    18     8     9   ar
    19     9    10   ar
    20    10     1   ar
    21    10     5   ar
    22    20    15   ar
@<TRIPOS>MOLECULE
*****
 20 22 0 0 0
SMALL
GASTEIGER

@<TRIPOS>ATOM
      1 C         139.2763  143.3668  159.5536 C.ar    1  UNL1        0.1401
      2 C         140.2746  144.1838  158.7881 C.ar    1  UNL1        0.0370
      3 C         141.4737  144.7513  159.4881 C.ar    1  UNL1        0.0047
      4 C         141.6746  144.5018  160.9535 C.ar    1  UNL1        0.0193
      5 C         140.6763  143.6848  161.7189 C.ar    1  UNL1        0.0849
      6 N         140.8772  143.4352  163.1843 N.ar    1  UNL1       -0.2370
      7 C         139.8789  142.6182  163.9497 C.ar    1  UNL1        0.1228
      8 C         138.6797  142.0508  163.2498 C.ar    1  UNL1        0.0277
      9 C         138.4788  142.3003  161.7844 C.ar    1  UNL1        0.0067
     10 C         139.4771  143.1173  161.0189 C.ar    1  UNL1        0.0517
     11 C         138.1941  141.5156  158.0866 C.3     1  UNL1        0.2525
     12 O         138.0771  142.7994  158.8536 O.3     1  UNL1       -0.4714
     13 C         140.0797  142.3687  165.4152 C.1     1  UNL1       -0.0404
     14 C         140.2806  142.1191  166.8805 C.1     1  UNL1       -0.0567
     15 C         140.4815  141.8695  168.3459 C.ar    1  UNL1        0.0612
     16 C         140.4653  140.4667  168.8769 C.ar    1  UNL1        0.0114
     17 C         140.6661  140.2171  170.3423 C.ar    1  UNL1        0.0213
     18 C         140.8832  141.3703  171.2767 C.ar    1  UNL1        0.0989
     19 N         140.8995  142.7731  170.7457 N.ar    1  UNL1       -0.2417
     20 C         140.6986  143.0227  169.2803 C.ar    1  UNL1        0.1071
@<TRIPOS>BOND
     1    11    12    1
     2    12     1    1
     3     1     2   ar
     4     2     3   ar
     5     3     4   ar
     6     4     5   ar
     7     5     6   ar
     8     6     7   ar
     9     7    13    1
    10    13    14    3
    11    14    15    1
    12    15    16   ar
    13    16    17   ar
    14    17    18   ar
    15    18    19   ar
    16    19    20   ar
    17     7     8   ar
    18     8     9   ar
    19     9    10   ar
    20    10     1   ar
    21    10     5   ar
    22    20    15   ar
@<TRIPOS>MOLECULE
*****
 20 22 0 0 0
SMALL
GASTEIGER

@<TRIPOS>ATOM
      1 C         139.5638  140.2991  167.6101 C.ar    1  UNL1        0.1401
      2 C         138.4129  139.3473  167.7499 C.ar    1  UNL1        0.0370
      3 C         137.9655  138.5332  166.5722 C.ar    1  UNL1        0.0047
      4 C         138.6690  138.6709  165.2546 C.ar    1  UNL1        0.0193
      5 C         139.8199  139.6226  165.1148 C.ar    1  UNL1        0.0849
      6 N         140.5235  139.7603  163.7971 N.ar    1  UNL1       -0.2370
      7 C         141.6744  140.7121  163.6573 C.ar    1  UNL1        0.1228
      8 C         142.1217  141.5262  164.8351 C.ar    1  UNL1        0.0277
      9 C         141.4182  141.3885  166.1527 C.ar    1  UNL1        0.0067
     10 C         140.2673  140.4367  166.2925 C.ar    1  UNL1        0.0517
     11 C         139.9422  140.5338  170.1697 C.3     1  UNL1        0.2525
     12 O         140.0111  141.1132  168.7879 O.3     1  UNL1       -0.4714
     13 C         142.3780  140.8498  162.3397 C.1     1  UNL1       -0.0404
     14 C         143.0815  140.9875  161.0221 C.1     1  UNL1       -0.0567
     15 C         143.7850  141.1252  159.7045 C.ar    1  UNL1        0.0612
     16 C         144.5116  142.3945  159.3713 C.ar    1  UNL1        0.0114
     17 C         145.2151  142.5322  158.0537 C.ar    1  UNL1        0.0213
     18 C         145.1920  141.4007  157.0693 C.ar    1  UNL1        0.0989
     19 N         144.4654  140.1314  157.4024 N.ar    1  UNL1       -0.2417
     20 C         143.7619  139.9937  158.7201 C.ar    1  UNL1        0.1071
@<TRIPOS>BOND
     1    11    12    1
     2    12     1    1
     3     1     2   ar
     4     2     3   ar
     5     3     4   ar
     6     4     5   ar
     7     5     6   ar
     8     6     7   ar
     9     7    13    1
    10    13    14    3
    11    14    15    1
    12    15    16   ar
    13    16    17   ar
    14    17    18   ar
    15    18    19   ar
    16    19    20   ar
    17     7     8   ar
    18     8     9   ar
    19     9    10   ar
    20    10     1   ar
    21    10     5   ar
    22    20    15   ar
@<TRIPOS>MOLECULE
*****
 20 22 0 0 0
SMALL
GASTEIGER

@<TRIPOS>ATOM
      1 C         141.2345  142.8073  164.8085 C.ar    1  UNL1        0.1401
      2 C         140.2928  143.1789  165.9153 C.ar    1  UNL1        0.0370
      3 C         139.1824  144.1544  165.6596 C.ar    1  UNL1        0.0047
      4 C         139.0137  144.7584  164.2970 C.ar    1  UNL1        0.0193
      5 C         139.9554  144.3869  163.1902 C.ar    1  UNL1        0.0849
      6 N         139.7868  144.9909  161.8275 N.ar    1  UNL1       -0.2370
      7 C         140.7285  144.6194  160.7206 C.ar    1  UNL1        0.1228
      8 C         141.8389  143.6439  160.9764 C.ar    1  UNL1        0.0277
      9 C         142.0075  143.0398  162.3390 C.ar    1  UNL1        0.0067
     10 C         141.0658  143.4113  163.4459 C.ar    1  UNL1        0.0517
     11 C         142.0652  140.3582  165.0563 C.3     1  UNL1        0.2525
     12 O         142.3449  141.8318  165.0642 O.3     1  UNL1       -0.4714
     13 C         140.5599  145.2234  159.3580 C.1     1  UNL1       -0.0404
     14 C         140.3912  145.8274  157.9954 C.1     1  UNL1       -0.0567
     15 C         140.2225  146.4314  156.6328 C.ar    1  UNL1        0.0612
     16 C         139.1920  147.4979  156.4075 C.ar    1  UNL1        0.0114
     17 C         139.0233  148.1019  155.0449 C.ar    1  UNL1        0.0213
     18 C         139.8851  147.6394  153.9076 C.ar    1  UNL1        0.0989
     19 N         140.9155  146.5729  154.1328 N.ar    1  UNL1       -0.2417
     20 C         141.0842  145.9689  155.4955 C.ar    1  UNL1        0.1071
@<TRIPOS>BOND
     1    11    12    1
     2    12     1    1
     3     1     2   ar
     4     2     3   ar
     5     3     4   ar
     6     4     5   ar
     7     5     6   ar
     8     6     7   ar
     9     7    13    1
    10    13    14    3
    11    14    15    1
    12    15    16   ar
    13    16    17   ar
    14    17    18   ar
    15    18    19   ar
    16    19    20   ar
    17     7     8   ar
    18     8     9   ar
    19     9    10   ar
    20    10     1   ar
    21    10     5   ar
    22    20    15   ar
@<TRIPOS>MOLECULE
*****
 20 22 0 0 0
SMALL
GASTEIGER

@<TRIPOS>ATOM
      1 C         141.1185  141.1286  168.3168 C.ar    1  UNL1        0.1401
      2 C         141.9195  139.9104  168.6695 C.ar    1  UNL1        0.0370
      3 C         142.7561  139.2343  167.6241 C.ar    1  UNL1        0.0047
      4 C         142.7918  139.7765  166.2260 C.ar    1  UNL1        0.0193
      5 C         141.9909  140.9947  165.8733 C.ar    1  UNL1        0.0849
      6 N         142.0266  141.5368  164.4751 N.ar    1  UNL1       -0.2370
      7 C         141.2256  142.7550  164.1224 C.ar    1  UNL1        0.1228
      8 C         140.3890  143.4311  165.1679 C.ar    1  UNL1        0.0277
      9 C         140.3533  142.8890  166.5660 C.ar    1  UNL1        0.0067
     10 C         141.1542  141.6707  166.9187 C.ar    1  UNL1        0.0517
     11 C         140.5604  141.5647  170.8165 C.3     1  UNL1        0.2525
     12 O         140.2819  141.8047  169.3623 O.3     1  UNL1       -0.4714
     13 C         141.2613  143.2972  162.7242 C.1     1  UNL1       -0.0404
     14 C         141.2969  143.8394  161.3261 C.1     1  UNL1       -0.0567
     15 C         141.3325  144.3815  159.9280 C.ar    1  UNL1        0.0612
     16 C         142.3819  143.9080  158.9665 C.ar    1  UNL1        0.0114
     17 C         142.4176  144.4502  157.5684 C.ar    1  UNL1        0.0213
     18 C         141.4038  145.4659  157.1317 C.ar    1  UNL1        0.0989
     19 N         140.3544  145.9394  158.0932 N.ar    1  UNL1       -0.2417
     20 C         140.3187  145.3972  159.4914 C.ar    1  UNL1        0.1071
@<TRIPOS>BOND
     1    11    12    1
     2    12     1    1
     3     1     2   ar
     4     2     3   ar
     5     3     4   ar
     6     4     5   ar
     7     5     6   ar
     8     6     7   ar
     9     7    13    1
    10    13    14    3
    11    14    15    1
    12    15    16   ar
    13    16    17   ar
    14    17    18   ar
    15    18    19   ar
    16    19    20   ar
    17     7     8   ar
    18     8     9   ar
    19     9    10   ar
    20    10     1   ar
    21    10     5   ar
    22    20    15   ar
