@<TRIPOS>MOLECULE
*****
 35 38 0 0 0
SMALL
GASTEIGER

@<TRIPOS>ATOM
      1 C         141.5724  143.6289  162.0176 C.3     1  UNL1        0.1751
      2 C         141.8918  143.9080  160.5788 C.ar    1  UNL1        0.0089
      3 C         142.8372  143.2538  159.6154 C.ar    1  UNL1       -0.0021
      4 C         142.9448  143.7622  158.2083 C.ar    1  UNL1       -0.0003
      5 C         142.1071  144.9246  157.7646 C.ar    1  UNL1        0.0001
      6 C         141.1617  145.5788  158.7281 C.ar    1  UNL1        0.0043
      7 C         141.0540  145.0705  160.1352 C.ar    1  UNL1        0.0516
      8 C         140.2169  145.5097  161.2998 C.2     1  UNL1        0.2493
      9 O         139.2323  146.6413  161.3007 O.2     1  UNL1       -0.2699
     10 N         140.5373  144.6188  162.4632 N.am    1  UNL1       -0.2657
     11 O         141.6461  141.1499  162.7918 O.2     1  UNL1       -0.2729
     12 C         142.1813  142.5493  162.8625 C.2     1  UNL1        0.2451
     13 N         143.3256  142.8692  163.7782 N.am    1  UNL1       -0.2988
     14 H         143.6769  143.7877  163.8247 H       1  UNL1        0.1498
     15 C         143.9345  141.7896  164.6231 C.3     1  UNL1        0.1164
     16 C         143.2019  141.2771  165.8275 C.ar    1  UNL1       -0.0024
     17 C         142.5703  142.2410  166.7876 C.ar    1  UNL1        0.0005
     18 C         141.8378  141.7284  167.9920 C.ar    1  UNL1        0.0369
     19 C         141.7369  140.2518  168.2364 C.ar    1  UNL1        0.1468
     20 C         142.3685  139.2879  167.2763 C.ar    1  UNL1        0.0369
     21 C         143.1011  139.8006  166.0718 C.ar    1  UNL1        0.0005
     22 O         141.0043  139.7393  169.4408 O.3     1  UNL1       -0.4045
     23 C         139.6853  140.3395  169.8281 C.3     1  UNL1        0.5753
     24 F         138.3664  140.9397  170.2154 F       1  UNL1       -0.1328
     25 F         140.2973  140.8694  171.0909 F       1  UNL1       -0.1328
     26 F         139.0734  139.8096  168.5653 F       1  UNL1       -0.1328
     27 C         139.9293  144.7030  163.8319 C.3     1  UNL1        0.1024
     28 C         138.6556  143.9702  164.1331 C.3     1  UNL1        0.0872
     29 C         138.6388  142.4704  164.1481 C.ar    1  UNL1        0.1411
     30 N         139.2708  141.7246  165.2859 N.ar    1  UNL1       -0.2267
     31 C         139.2540  140.2247  165.3009 C.ar    1  UNL1        0.1314
     32 C         138.6052  139.4707  164.1781 C.ar    1  UNL1        0.1783
     33 F         138.5884  137.9709  164.1931 F       1  UNL1       -0.2009
     34 C         137.9732  140.2165  163.0404 C.ar    1  UNL1        0.1314
     35 N         137.9900  141.7163  163.0254 N.ar    1  UNL1       -0.2267
@<TRIPOS>BOND
     1    11    12    2
     2    12    13   am
     3    13    15    1
     4    15    16    1
     5    16    17   ar
     6    17    18   ar
     7    18    19   ar
     8    19    22    1
     9    22    23    1
    10    23    24    1
    11    23    25    1
    12    23    26    1
    13    19    20   ar
    14    20    21   ar
    15    12     1    1
    16     1     2    1
    17     2     3   ar
    18     3     4   ar
    19     4     5   ar
    20     5     6   ar
    21     6     7   ar
    22     7     8    1
    23     8     9    2
    24     8    10   am
    25    10    27    1
    26    27    28    1
    27    28    29    1
    28    29    30   ar
    29    30    31   ar
    30    31    32   ar
    31    32    33    1
    32    32    34   ar
    33    34    35   ar
    34    21    16   ar
    35    10     1    1
    36    35    29   ar
    37     7     2   ar
    38    13    14    1
@<TRIPOS>MOLECULE
*****
 35 38 0 0 0
SMALL
GASTEIGER

@<TRIPOS>ATOM
      1 C         139.3025  143.4708  161.3812 C.3     1  UNL1        0.1751
      2 C         139.1799  142.8054  160.0425 C.ar    1  UNL1        0.0089
      3 C         138.4591  141.5667  159.5996 C.ar    1  UNL1       -0.0021
      4 C         138.5179  141.1378  158.1635 C.ar    1  UNL1       -0.0003
      5 C         139.2975  141.9475  157.1702 C.ar    1  UNL1        0.0001
      6 C         140.0184  143.1861  157.6131 C.ar    1  UNL1        0.0043
      7 C         139.9596  143.6151  159.0492 C.ar    1  UNL1        0.0516
      8 C         140.5640  144.7809  159.7741 C.2     1  UNL1        0.2493
      9 O         141.4236  145.8485  159.1647 O.2     1  UNL1       -0.2699
     10 N         140.1579  144.6918  161.2153 N.am    1  UNL1       -0.2657
     11 O         137.5990  143.8091  163.3134 O.2     1  UNL1       -0.2729
     12 C         138.6792  142.9982  162.6611 C.2     1  UNL1        0.2451
     13 N         139.1361  141.7147  163.2887 N.am    1  UNL1       -0.2988
     14 H         139.8450  141.1824  162.8606 H       1  UNL1        0.1498
     15 C         138.5127  141.2421  164.5686 C.3     1  UNL1        0.1164
     16 C         139.2694  141.3574  165.8586 C.ar    1  UNL1       -0.0024
     17 C         139.3392  140.1871  166.7943 C.ar    1  UNL1        0.0005
     18 C         140.0959  140.3025  168.0843 C.ar    1  UNL1        0.0369
     19 C         140.7828  141.5881  168.4386 C.ar    1  UNL1        0.1468
     20 C         140.7129  142.7584  167.5029 C.ar    1  UNL1        0.0369
     21 C         139.9562  142.6430  166.2128 C.ar    1  UNL1        0.0005
     22 O         141.5395  141.7034  169.7286 O.3     1  UNL1       -0.4045
     23 C         142.9795  142.1230  169.7185 C.3     1  UNL1        0.5753
     24 F         144.4196  142.5426  169.7085 F       1  UNL1       -0.1328
     25 F         142.5928  143.4633  170.2700 F       1  UNL1       -0.1328
     26 F         143.3662  140.7828  169.1670 F       1  UNL1       -0.1328
     27 C         140.5402  145.6546  162.3002 C.3     1  UNL1        0.1024
     28 C         141.5595  145.2607  163.3277 C.3     1  UNL1        0.0872
     29 C         142.4741  144.0999  163.0702 C.ar    1  UNL1        0.1411
     30 N         142.1732  142.7598  163.6733 N.ar    1  UNL1       -0.2267
     31 C         143.0877  141.5991  163.4158 C.ar    1  UNL1        0.1314
     32 C         144.3032  141.7785  162.5553 C.ar    1  UNL1        0.1783
     33 F         145.2178  140.6178  162.2978 F       1  UNL1       -0.2009
     34 C         144.6041  143.1185  161.9523 C.ar    1  UNL1        0.1314
     35 N         143.6895  144.2793  162.2097 N.ar    1  UNL1       -0.2267
@<TRIPOS>BOND
     1    11    12    2
     2    12    13   am
     3    13    15    1
     4    15    16    1
     5    16    17   ar
     6    17    18   ar
     7    18    19   ar
     8    19    22    1
     9    22    23    1
    10    23    24    1
    11    23    25    1
    12    23    26    1
    13    19    20   ar
    14    20    21   ar
    15    12     1    1
    16     1     2    1
    17     2     3   ar
    18     3     4   ar
    19     4     5   ar
    20     5     6   ar
    21     6     7   ar
    22     7     8    1
    23     8     9    2
    24     8    10   am
    25    10    27    1
    26    27    28    1
    27    28    29    1
    28    29    30   ar
    29    30    31   ar
    30    31    32   ar
    31    32    33    1
    32    32    34   ar
    33    34    35   ar
    34    21    16   ar
    35    10     1    1
    36    35    29   ar
    37     7     2   ar
    38    13    14    1
@<TRIPOS>MOLECULE
*****
 35 38 0 0 0
SMALL
GASTEIGER

@<TRIPOS>ATOM
      1 C         140.6795  138.6481  162.0217 C.3     1  UNL1        0.1751
      2 C         141.0907  138.4232  160.5968 C.ar    1  UNL1        0.0089
      3 C         142.3945  138.0082  159.9820 C.ar    1  UNL1       -0.0021
      4 C         142.5089  137.8623  158.4935 C.ar    1  UNL1       -0.0003
      5 C         141.3197  138.1313  157.6199 C.ar    1  UNL1        0.0001
      6 C         140.0160  138.5464  158.2347 C.ar    1  UNL1        0.0043
      7 C         139.9015  138.6923  159.7231 C.ar    1  UNL1        0.0516
      8 C         138.7553  139.0835  160.6081 C.2     1  UNL1        0.2493
      9 O         137.3712  139.4395  160.1524 O.2     1  UNL1       -0.2699
     10 N         139.2361  139.0561  162.0287 N.am    1  UNL1       -0.2657
     11 O         141.3837  137.3100  164.1343 O.2     1  UNL1       -0.2729
     12 C         141.5575  138.4922  163.2278 C.2     1  UNL1        0.2451
     13 N         142.6095  139.5188  163.5274 N.am    1  UNL1       -0.2988
     14 H         142.7236  140.2948  162.9324 H       1  UNL1        0.1498
     15 C         143.4875  139.3630  164.7336 C.3     1  UNL1        0.1164
     16 C         143.0876  139.9865  166.0379 C.ar    1  UNL1       -0.0024
     17 C         142.7927  139.1184  167.2250 C.ar    1  UNL1        0.0005
     18 C         142.3928  139.7420  168.5293 C.ar    1  UNL1        0.0369
     19 C         142.2878  141.2338  168.6465 C.ar    1  UNL1        0.1468
     20 C         142.5827  142.1019  167.4593 C.ar    1  UNL1        0.0369
     21 C         142.9826  141.4783  166.1549 C.ar    1  UNL1        0.0005
     22 O         141.8879  141.8573  169.9508 O.3     1  UNL1       -0.4045
     23 C         141.2792  143.2281  169.9714 C.3     1  UNL1        0.5753
     24 F         140.6705  144.5989  169.9921 F       1  UNL1       -0.1328
     25 F         142.5751  143.7961  170.4695 F       1  UNL1       -0.1328
     26 F         139.9833  142.6602  169.4733 F       1  UNL1       -0.1328
     27 C         138.4172  139.3800  163.2430 C.3     1  UNL1        0.1024
     28 C         138.8339  140.4979  164.1522 C.3     1  UNL1        0.0872
     29 C         139.2813  141.8077  163.5742 C.ar    1  UNL1        0.1411
     30 N         140.7448  142.0982  163.4190 N.ar    1  UNL1       -0.2267
     31 C         141.1923  143.4080  162.8410 C.ar    1  UNL1        0.1314
     32 C         140.1762  144.4273  162.4180 C.ar    1  UNL1        0.1783
     33 F         140.6237  145.7371  161.8399 F       1  UNL1       -0.2009
     34 C         138.7129  144.1368  162.5731 C.ar    1  UNL1        0.1314
     35 N         138.2654  142.8270  163.1512 N.ar    1  UNL1       -0.2267
@<TRIPOS>BOND
     1    11    12    2
     2    12    13   am
     3    13    15    1
     4    15    16    1
     5    16    17   ar
     6    17    18   ar
     7    18    19   ar
     8    19    22    1
     9    22    23    1
    10    23    24    1
    11    23    25    1
    12    23    26    1
    13    19    20   ar
    14    20    21   ar
    15    12     1    1
    16     1     2    1
    17     2     3   ar
    18     3     4   ar
    19     4     5   ar
    20     5     6   ar
    21     6     7   ar
    22     7     8    1
    23     8     9    2
    24     8    10   am
    25    10    27    1
    26    27    28    1
    27    28    29    1
    28    29    30   ar
    29    30    31   ar
    30    31    32   ar
    31    32    33    1
    32    32    34   ar
    33    34    35   ar
    34    21    16   ar
    35    10     1    1
    36    35    29   ar
    37     7     2   ar
    38    13    14    1
@<TRIPOS>MOLECULE
*****
 35 38 0 0 0
SMALL
GASTEIGER

@<TRIPOS>ATOM
      1 C         141.2212  140.7298  166.7463 C.3     1  UNL1        0.1751
      2 C         140.9798  141.5332  167.9898 C.ar    1  UNL1        0.0089
      3 C         141.6881  142.7209  168.5707 C.ar    1  UNL1       -0.0021
      4 C         141.2086  143.3248  169.8572 C.ar    1  UNL1       -0.0003
      5 C         140.0207  142.7410  170.5630 C.ar    1  UNL1        0.0001
      6 C         139.3124  141.5532  169.9821 C.ar    1  UNL1        0.0043
      7 C         139.7919  140.9493  168.6956 C.ar    1  UNL1        0.0516
      8 C         139.2992  139.7851  167.8882 C.2     1  UNL1        0.2493
      9 O         138.1286  138.9102  168.2263 O.2     1  UNL1       -0.2699
     10 N         140.1825  139.6494  166.6835 N.am    1  UNL1       -0.2657
     11 O         142.3610  142.2563  164.9798 O.2     1  UNL1       -0.2729
     12 C         142.3101  140.9654  165.7420 C.2     1  UNL1        0.2451
     13 N         143.3483  139.9100  165.4998 N.am    1  UNL1       -0.2988
     14 H         143.3149  139.0628  166.0000 H       1  UNL1        0.1498
     15 C         144.4372  140.1457  164.4954 C.3     1  UNL1        0.1164
     16 C         144.1990  139.8419  163.0460 C.ar    1  UNL1       -0.0024
     17 C         144.1619  140.9561  162.0424 C.ar    1  UNL1        0.0005
     18 C         143.9237  140.6522  160.5929 C.ar    1  UNL1        0.0369
     19 C         143.7227  139.2342  160.1470 C.ar    1  UNL1        0.1468
     20 C         143.7599  138.1200  161.1506 C.ar    1  UNL1        0.0369
     21 C         143.9981  138.4239  162.6001 C.ar    1  UNL1        0.0005
     22 O         143.4846  138.9304  158.6975 O.3     1  UNL1       -0.4045
     23 C         142.1737  138.3482  158.2587 C.3     1  UNL1        0.5753
     24 F         140.8628  137.7660  157.8199 F       1  UNL1       -0.1328
     25 F         142.8183  137.0009  158.1206 F       1  UNL1       -0.1328
     26 F         141.5290  139.6955  158.3968 F       1  UNL1       -0.1328
     27 C         140.0504  138.6149  165.6053 C.3     1  UNL1        0.1024
     28 C         138.7384  138.4269  164.9031 C.3     1  UNL1        0.0872
     29 C         138.6000  138.8054  163.4583 C.ar    1  UNL1        0.1411
     30 N         139.0972  137.8782  162.3891 N.ar    1  UNL1       -0.2267
     31 C         138.9588  138.2567  160.9442 C.ar    1  UNL1        0.1314
     32 C         138.3232  139.5625  160.5686 C.ar    1  UNL1        0.1783
     33 F         138.1848  139.9410  159.1238 F       1  UNL1       -0.2009
     34 C         137.8259  140.4896  161.6377 C.ar    1  UNL1        0.1314
     35 N         137.9643  140.1111  163.0826 N.ar    1  UNL1       -0.2267
@<TRIPOS>BOND
     1    11    12    2
     2    12    13   am
     3    13    15    1
     4    15    16    1
     5    16    17   ar
     6    17    18   ar
     7    18    19   ar
     8    19    22    1
     9    22    23    1
    10    23    24    1
    11    23    25    1
    12    23    26    1
    13    19    20   ar
    14    20    21   ar
    15    12     1    1
    16     1     2    1
    17     2     3   ar
    18     3     4   ar
    19     4     5   ar
    20     5     6   ar
    21     6     7   ar
    22     7     8    1
    23     8     9    2
    24     8    10   am
    25    10    27    1
    26    27    28    1
    27    28    29    1
    28    29    30   ar
    29    30    31   ar
    30    31    32   ar
    31    32    33    1
    32    32    34   ar
    33    34    35   ar
    34    21    16   ar
    35    10     1    1
    36    35    29   ar
    37     7     2   ar
    38    13    14    1
@<TRIPOS>MOLECULE
*****
 35 38 0 0 0
SMALL
GASTEIGER

@<TRIPOS>ATOM
      1 C         140.6202  141.0573  166.5346 C.3     1  UNL1        0.1751
      2 C         140.9730  141.7175  167.8345 C.ar    1  UNL1        0.0089
      3 C         140.4590  142.9586  168.5019 C.ar    1  UNL1       -0.0021
      4 C         141.0140  143.3806  169.8300 C.ar    1  UNL1       -0.0003
      5 C         142.0829  142.5615  170.4906 C.ar    1  UNL1        0.0001
      6 C         142.5969  141.3205  169.8232 C.ar    1  UNL1        0.0043
      7 C         142.0420  140.8984  168.4951 C.ar    1  UNL1        0.0516
      8 C         142.3498  139.7321  167.6035 C.2     1  UNL1        0.2493
      9 O         143.3591  138.6564  167.8759 O.2     1  UNL1       -0.2699
     10 N         141.4711  139.8303  166.3918 N.am    1  UNL1       -0.2657
     11 O         138.3549  140.7345  165.3041 O.2     1  UNL1       -0.2729
     12 C         139.5962  141.5396  165.5502 C.2     1  UNL1        0.2451
     13 N         139.8137  142.8272  164.8119 N.am    1  UNL1       -0.2988
     14 H         140.6285  143.3557  164.9734 H       1  UNL1        0.1498
     15 C         138.7898  143.3095  163.8275 C.3     1  UNL1        0.1164
     16 C         139.1910  143.6070  162.4132 C.ar    1  UNL1       -0.0024
     17 C         139.9430  144.8655  162.0958 C.ar    1  UNL1        0.0005
     18 C         140.3442  145.1630  160.6814 C.ar    1  UNL1        0.0369
     19 C         139.9934  144.2020  159.5843 C.ar    1  UNL1        0.1468
     20 C         139.2415  142.9435  159.9017 C.ar    1  UNL1        0.0369
     21 C         138.8402  142.6460  161.3162 C.ar    1  UNL1        0.0005
     22 O         140.3947  144.4996  158.1700 O.3     1  UNL1       -0.4045
     23 C         141.4760  145.5013  157.8920 C.3     1  UNL1        0.5753
     24 F         142.5574  146.5029  157.6141 F       1  UNL1       -0.1328
     25 F         142.5152  144.4705  158.2201 F       1  UNL1       -0.1328
     26 F         140.4369  146.5320  157.5640 F       1  UNL1       -0.1328
     27 C         141.4474  138.8701  165.2397 C.3     1  UNL1        0.1024
     28 C         142.5814  138.8484  164.2581 C.3     1  UNL1        0.0872
     29 C         143.1474  140.1362  163.7373 C.ar    1  UNL1        0.1411
     30 N         144.6305  140.3609  163.7446 N.ar    1  UNL1       -0.2267
     31 C         145.1965  141.6487  163.2238 C.ar    1  UNL1        0.1314
     32 C         144.2793  142.7118  162.6958 C.ar    1  UNL1        0.1783
     33 F         144.8453  143.9996  162.1750 F       1  UNL1       -0.2009
     34 C         142.7963  142.4871  162.6885 C.ar    1  UNL1        0.1314
     35 N         142.2303  141.1993  163.2092 N.ar    1  UNL1       -0.2267
@<TRIPOS>BOND
     1    11    12    2
     2    12    13   am
     3    13    15    1
     4    15    16    1
     5    16    17   ar
     6    17    18   ar
     7    18    19   ar
     8    19    22    1
     9    22    23    1
    10    23    24    1
    11    23    25    1
    12    23    26    1
    13    19    20   ar
    14    20    21   ar
    15    12     1    1
    16     1     2    1
    17     2     3   ar
    18     3     4   ar
    19     4     5   ar
    20     5     6   ar
    21     6     7   ar
    22     7     8    1
    23     8     9    2
    24     8    10   am
    25    10    27    1
    26    27    28    1
    27    28    29    1
    28    29    30   ar
    29    30    31   ar
    30    31    32   ar
    31    32    33    1
    32    32    34   ar
    33    34    35   ar
    34    21    16   ar
    35    10     1    1
    36    35    29   ar
    37     7     2   ar
    38    13    14    1
@<TRIPOS>MOLECULE
*****
 35 38 0 0 0
SMALL
GASTEIGER

@<TRIPOS>ATOM
      1 C         138.7634  141.8098  161.4160 C.3     1  UNL1        0.1751
      2 C         139.3226  143.1020  160.8990 C.ar    1  UNL1        0.0089
      3 C         139.6016  144.4145  161.5694 C.ar    1  UNL1       -0.0021
      4 C         140.1752  145.5532  160.7793 C.ar    1  UNL1       -0.0003
      5 C         140.4699  145.3794  159.3188 C.ar    1  UNL1        0.0001
      6 C         140.1909  144.0669  158.6484 C.ar    1  UNL1        0.0043
      7 C         139.6173  142.9282  159.4385 C.ar    1  UNL1        0.0516
      8 C         139.2401  141.5285  159.0530 C.2     1  UNL1        0.2493
      9 O         139.3683  140.9259  157.6853 O.2     1  UNL1       -0.2699
     10 N         138.7124  140.8373  160.2751 N.am    1  UNL1       -0.2657
     11 O         136.9201  141.8244  163.2468 O.2     1  UNL1       -0.2729
     12 C         138.3310  141.5377  162.8264 C.2     1  UNL1        0.2451
     13 N         139.3098  140.9790  163.8163 N.am    1  UNL1       -0.2988
     14 H         140.2359  140.7908  163.5404 H       1  UNL1        0.1498
     15 C         138.8774  140.7070  165.2267 C.3     1  UNL1        0.1164
     16 C         139.8674  140.8142  166.3484 C.ar    1  UNL1       -0.0024
     17 C         141.1079  141.6401  166.1777 C.ar    1  UNL1        0.0005
     18 C         142.0978  141.7473  167.2995 C.ar    1  UNL1        0.0369
     19 C         141.8474  141.0287  168.5921 C.ar    1  UNL1        0.1468
     20 C         140.6069  140.2028  168.7629 C.ar    1  UNL1        0.0369
     21 C         139.6169  140.0956  167.6410 C.ar    1  UNL1        0.0005
     22 O         142.8374  141.1359  169.7139 O.3     1  UNL1       -0.4045
     23 C         143.1138  142.4681  170.3455 C.3     1  UNL1        0.5753
     24 F         143.3902  143.8002  170.9771 F       1  UNL1       -0.1328
     25 F         144.4675  142.4933  169.6998 F       1  UNL1       -0.1328
     26 F         141.7601  142.4428  170.9912 F       1  UNL1       -0.1328
     27 C         138.2201  139.4220  160.3442 C.3     1  UNL1        0.1024
     28 C         139.1864  138.3035  160.5993 C.3     1  UNL1        0.0872
     29 C         139.9672  138.2641  161.8794 C.ar    1  UNL1        0.1411
     30 N         141.3003  138.9464  161.9661 N.ar    1  UNL1       -0.2267
     31 C         142.0811  138.9071  163.2462 C.ar    1  UNL1        0.1314
     32 C         141.5288  138.1855  164.4397 C.ar    1  UNL1        0.1783
     33 F         142.3097  138.1461  165.7199 F       1  UNL1       -0.2009
     34 C         140.1958  137.5032  164.3530 C.ar    1  UNL1        0.1314
     35 N         139.4150  137.5426  163.0729 N.ar    1  UNL1       -0.2267
@<TRIPOS>BOND
     1    11    12    2
     2    12    13   am
     3    13    15    1
     4    15    16    1
     5    16    17   ar
     6    17    18   ar
     7    18    19   ar
     8    19    22    1
     9    22    23    1
    10    23    24    1
    11    23    25    1
    12    23    26    1
    13    19    20   ar
    14    20    21   ar
    15    12     1    1
    16     1     2    1
    17     2     3   ar
    18     3     4   ar
    19     4     5   ar
    20     5     6   ar
    21     6     7   ar
    22     7     8    1
    23     8     9    2
    24     8    10   am
    25    10    27    1
    26    27    28    1
    27    28    29    1
    28    29    30   ar
    29    30    31   ar
    30    31    32   ar
    31    32    33    1
    32    32    34   ar
    33    34    35   ar
    34    21    16   ar
    35    10     1    1
    36    35    29   ar
    37     7     2   ar
    38    13    14    1
@<TRIPOS>MOLECULE
*****
 35 38 0 0 0
SMALL
GASTEIGER

@<TRIPOS>ATOM
      1 C         138.5127  140.1593  163.0401 C.3     1  UNL1        0.1751
      2 C         138.3359  141.6256  163.3025 C.ar    1  UNL1        0.0089
      3 C         137.9702  142.7691  162.4034 C.ar    1  UNL1       -0.0021
      4 C         137.8665  144.1579  162.9607 C.ar    1  UNL1       -0.0003
      5 C         138.1285  144.4030  164.4171 C.ar    1  UNL1        0.0001
      6 C         138.4941  143.2594  165.3163 C.ar    1  UNL1        0.0043
      7 C         138.5978  141.8707  164.7590 C.ar    1  UNL1        0.0516
      8 C         138.9365  140.5560  165.3967 C.2     1  UNL1        0.2493
      9 O         139.2694  140.3374  166.8429 O.2     1  UNL1       -0.2699
     10 N         138.8839  139.4983  164.3344 N.am    1  UNL1       -0.2657
     11 O         137.3753  138.3409  161.5740 O.2     1  UNL1       -0.2729
     12 C         138.3473  139.4744  161.7159 C.2     1  UNL1        0.2451
     13 N         139.1541  139.9231  160.5335 N.am    1  UNL1       -0.2988
     14 H         139.7921  140.6671  160.6266 H       1  UNL1        0.1498
     15 C         138.9887  139.2381  159.2093 C.3     1  UNL1        0.1164
     16 C         140.1650  138.5757  158.5556 C.ar    1  UNL1       -0.0024
     17 C         141.5239  138.6706  159.1836 C.ar    1  UNL1        0.0005
     18 C         142.7002  138.0081  158.5298 C.ar    1  UNL1        0.0369
     19 C         142.5176  137.2506  157.2480 C.ar    1  UNL1        0.1468
     20 C         141.1587  137.1558  156.6199 C.ar    1  UNL1        0.0369
     21 C         139.9824  137.8183  157.2738 C.ar    1  UNL1        0.0005
     22 O         143.6939  136.5882  156.5942 O.3     1  UNL1       -0.4045
     23 C         143.6588  135.1177  156.3002 C.3     1  UNL1        0.5753
     24 F         143.6237  133.6473  156.0061 F       1  UNL1       -0.1328
     25 F         143.3673  134.8359  157.7443 F       1  UNL1       -0.1328
     26 F         143.9503  135.3996  154.8560 F       1  UNL1       -0.1328
     27 C         139.1549  138.0362  164.5318 C.3     1  UNL1        0.1024
     28 C         140.3675  137.4078  163.9116 C.3     1  UNL1        0.0872
     29 C         141.6987  138.0925  164.0066 C.ar    1  UNL1        0.1411
     30 N         142.5145  138.3213  162.7687 N.ar    1  UNL1       -0.2267
     31 C         143.8457  139.0060  162.8638 C.ar    1  UNL1        0.1314
     32 C         144.3612  139.4619  164.1967 C.ar    1  UNL1        0.1783
     33 F         145.6924  140.1466  164.2917 F       1  UNL1       -0.2009
     34 C         143.5454  139.2331  165.4344 C.ar    1  UNL1        0.1314
     35 N         142.2142  138.5484  165.3394 N.ar    1  UNL1       -0.2267
@<TRIPOS>BOND
     1    11    12    2
     2    12    13   am
     3    13    15    1
     4    15    16    1
     5    16    17   ar
     6    17    18   ar
     7    18    19   ar
     8    19    22    1
     9    22    23    1
    10    23    24    1
    11    23    25    1
    12    23    26    1
    13    19    20   ar
    14    20    21   ar
    15    12     1    1
    16     1     2    1
    17     2     3   ar
    18     3     4   ar
    19     4     5   ar
    20     5     6   ar
    21     6     7   ar
    22     7     8    1
    23     8     9    2
    24     8    10   am
    25    10    27    1
    26    27    28    1
    27    28    29    1
    28    29    30   ar
    29    30    31   ar
    30    31    32   ar
    31    32    33    1
    32    32    34   ar
    33    34    35   ar
    34    21    16   ar
    35    10     1    1
    36    35    29   ar
    37     7     2   ar
    38    13    14    1
@<TRIPOS>MOLECULE
*****
 35 38 0 0 0
SMALL
GASTEIGER

@<TRIPOS>ATOM
      1 C         138.8055  140.9892  160.9980 C.3     1  UNL1        0.1751
      2 C         139.3494  141.7974  159.8573 C.ar    1  UNL1        0.0089
      3 C         139.6422  143.2615  159.7145 C.ar    1  UNL1       -0.0021
      4 C         140.1940  143.7937  158.4252 C.ar    1  UNL1       -0.0003
      5 C         140.4530  142.8617  157.2788 C.ar    1  UNL1        0.0001
      6 C         140.1602  141.3975  157.4216 C.ar    1  UNL1        0.0043
      7 C         139.6084  140.8654  158.7109 C.ar    1  UNL1        0.0516
      8 C         139.2246  139.4812  159.1431 C.2     1  UNL1        0.2493
      9 O         139.3203  138.2386  158.3083 O.2     1  UNL1       -0.2699
     10 N         138.7284  139.5577  160.5566 N.am    1  UNL1       -0.2657
     11 O         136.9641  141.5343  162.7478 O.2     1  UNL1       -0.2729
     12 C         138.4085  141.5194  162.3438 C.2     1  UNL1        0.2451
     13 N         139.4561  142.0349  163.2857 N.am    1  UNL1       -0.2988
     14 H         140.4041  142.0252  163.0206 H       1  UNL1        0.1498
     15 C         139.0590  142.5652  164.6315 C.3     1  UNL1        0.1164
     16 C         139.4414  141.8179  165.8746 C.ar    1  UNL1       -0.0024
     17 C         138.8861  140.4474  166.1266 C.ar    1  UNL1        0.0005
     18 C         139.2685  139.7002  167.3697 C.ar    1  UNL1        0.0369
     19 C         140.2063  140.3233  168.3609 C.ar    1  UNL1        0.1468
     20 C         140.7616  141.6937  168.1089 C.ar    1  UNL1        0.0369
     21 C         140.3791  142.4410  166.8657 C.ar    1  UNL1        0.0005
     22 O         140.5886  139.5760  169.6039 O.3     1  UNL1       -0.4045
     23 C         141.9639  139.7347  170.1814 C.3     1  UNL1        0.5753
     24 F         143.3392  139.8933  170.7588 F       1  UNL1       -0.1328
     25 F         141.4113  140.6280  171.2521 F       1  UNL1       -0.1328
     26 F         142.5165  138.8413  169.1106 F       1  UNL1       -0.1328
     27 C         138.2408  138.4051  161.3834 C.3     1  UNL1        0.1024
     28 C         139.0157  137.9673  162.5908 C.3     1  UNL1        0.0872
     29 C         140.4766  138.2890  162.7015 C.ar    1  UNL1        0.1411
     30 N         140.9441  139.3269  163.6784 N.ar    1  UNL1       -0.2267
     31 C         142.4050  139.6485  163.7892 C.ar    1  UNL1        0.1314
     32 C         143.3984  138.9323  162.9230 C.ar    1  UNL1        0.1783
     33 F         144.8594  139.2539  163.0338 F       1  UNL1       -0.2009
     34 C         142.9309  137.8944  161.9462 C.ar    1  UNL1        0.1314
     35 N         141.4700  137.5728  161.8355 N.ar    1  UNL1       -0.2267
@<TRIPOS>BOND
     1    11    12    2
     2    12    13   am
     3    13    15    1
     4    15    16    1
     5    16    17   ar
     6    17    18   ar
     7    18    19   ar
     8    19    22    1
     9    22    23    1
    10    23    24    1
    11    23    25    1
    12    23    26    1
    13    19    20   ar
    14    20    21   ar
    15    12     1    1
    16     1     2    1
    17     2     3   ar
    18     3     4   ar
    19     4     5   ar
    20     5     6   ar
    21     6     7   ar
    22     7     8    1
    23     8     9    2
    24     8    10   am
    25    10    27    1
    26    27    28    1
    27    28    29    1
    28    29    30   ar
    29    30    31   ar
    30    31    32   ar
    31    32    33    1
    32    32    34   ar
    33    34    35   ar
    34    21    16   ar
    35    10     1    1
    36    35    29   ar
    37     7     2   ar
    38    13    14    1
@<TRIPOS>MOLECULE
*****
 35 38 0 0 0
SMALL
GASTEIGER

@<TRIPOS>ATOM
      1 C         141.4139  140.6582  166.6857 C.3     1  UNL1        0.1751
      2 C         141.2268  141.4314  167.9575 C.ar    1  UNL1        0.0089
      3 C         142.0254  142.5327  168.5893 C.ar    1  UNL1       -0.0021
      4 C         141.5839  143.1255  169.8945 C.ar    1  UNL1       -0.0003
      5 C         140.3437  142.6170  170.5678 C.ar    1  UNL1        0.0001
      6 C         139.5451  141.5157  169.9360 C.ar    1  UNL1        0.0043
      7 C         139.9866  140.9229  168.6308 C.ar    1  UNL1        0.0516
      8 C         139.4073  139.8355  167.7752 C.2     1  UNL1        0.2493
      9 O         138.1642  139.0496  168.0701 O.2     1  UNL1       -0.2699
     10 N         140.2895  139.6719  166.5731 N.am    1  UNL1       -0.2657
     11 O         142.7497  142.1750  165.0533 O.2     1  UNL1       -0.2729
     12 C         142.5297  140.8396  165.6998 C.2     1  UNL1        0.2451
     13 N         143.4256  139.6853  165.3602 N.am    1  UNL1       -0.2988
     14 H         143.2812  138.8087  165.7845 H       1  UNL1        0.1498
     15 C         144.5414  139.8667  164.3742 C.3     1  UNL1        0.1164
     16 C         144.2845  139.6798  162.9083 C.ar    1  UNL1       -0.0024
     17 C         143.8949  138.3307  162.3810 C.ar    1  UNL1        0.0005
     18 C         143.6380  138.1440  160.9150 C.ar    1  UNL1        0.0369
     19 C         143.7707  139.3063  159.9762 C.ar    1  UNL1        0.1468
     20 C         144.1602  140.6555  160.5035 C.ar    1  UNL1        0.0369
     21 C         144.4171  140.8423  161.9695 C.ar    1  UNL1        0.0005
     22 O         143.5137  139.1195  158.5103 O.3     1  UNL1       -0.4045
     23 C         142.3114  138.3487  158.0518 C.3     1  UNL1        0.5753
     24 F         141.1091  137.5778  157.5932 F       1  UNL1       -0.1328
     25 F         141.4145  139.3814  158.6674 F       1  UNL1       -0.1328
     26 F         143.2084  137.3160  157.4361 F       1  UNL1       -0.1328
     27 C         140.0833  138.6937  165.4548 C.3     1  UNL1        0.1024
     28 C         140.0516  139.1744  164.0342 C.3     1  UNL1        0.0872
     29 C         139.4243  140.4962  163.7035 C.ar    1  UNL1        0.1411
     30 N         138.0103  140.7796  164.1165 N.ar    1  UNL1       -0.2267
     31 C         137.3830  142.1013  163.7858 C.ar    1  UNL1        0.1314
     32 C         138.1696  143.1397  163.0421 C.ar    1  UNL1        0.1783
     33 F         137.5422  144.4615  162.7114 F       1  UNL1       -0.2009
     34 C         139.5835  142.8563  162.6291 C.ar    1  UNL1        0.1314
     35 N         140.2108  141.5346  162.9598 N.ar    1  UNL1       -0.2267
@<TRIPOS>BOND
     1    11    12    2
     2    12    13   am
     3    13    15    1
     4    15    16    1
     5    16    17   ar
     6    17    18   ar
     7    18    19   ar
     8    19    22    1
     9    22    23    1
    10    23    24    1
    11    23    25    1
    12    23    26    1
    13    19    20   ar
    14    20    21   ar
    15    12     1    1
    16     1     2    1
    17     2     3   ar
    18     3     4   ar
    19     4     5   ar
    20     5     6   ar
    21     6     7   ar
    22     7     8    1
    23     8     9    2
    24     8    10   am
    25    10    27    1
    26    27    28    1
    27    28    29    1
    28    29    30   ar
    29    30    31   ar
    30    31    32   ar
    31    32    33    1
    32    32    34   ar
    33    34    35   ar
    34    21    16   ar
    35    10     1    1
    36    35    29   ar
    37     7     2   ar
    38    13    14    1
