@<TRIPOS>MOLECULE
*****
 31 36 0 0 0
SMALL
GASTEIGER

@<TRIPOS>ATOM
      1 C         138.9675  143.2641  162.0594 C.ar    1  UNL1        0.1124
      2 N         139.1519  143.6577  160.6238 N.ar    1  UNL1       -0.2243
      3 C         140.3842  144.4019  160.2025 C.ar    1  UNL1        0.1322
      4 C         141.4321  144.7525  161.2168 C.ar    1  UNL1        0.0345
      5 C         141.2478  144.3590  162.6524 C.ar    1  UNL1        0.0094
      6 C         140.0155  143.6148  163.0737 C.ar    1  UNL1        0.0769
      7 N         140.5686  144.7955  158.7668 N.pl3   1  UNL1       -0.2932
      8 C         141.6269  145.7151  158.2336 C.3     1  UNL1        0.0925
      9 C         141.4395  145.8266  156.7496 C.3     1  UNL1        0.0270
     10 C         140.2653  144.9758  156.3655 C.3     1  UNL1        0.0270
     11 C         139.7270  144.3386  157.6122 C.3     1  UNL1        0.0925
     12 C         141.0121  145.7421  155.3142 C.3     1  UNL1        0.0399
     13 C         141.1966  146.1357  153.8786 C.2     1  UNL1        0.0501
     14 O         141.7873  145.1609  152.9036 O.co2   1  UNL1       -0.5492
     15 O         140.7902  147.5042  153.4180 O.co2   1  UNL1       -0.5492
     16 C         139.8311  143.2212  164.5094 C.2     1  UNL1        0.2477
     17 O         139.0826  144.1242  165.4444 O.2     1  UNL1       -0.2701
     18 N         140.3952  141.9246  165.0100 N.am    1  UNL1       -0.3039
     19 H         140.8864  141.3319  164.3963 H       1  UNL1        0.1496
     20 C         140.2108  141.5310  166.4457 C.3     1  UNL1        0.0570
     21 C         139.3567  140.3486  166.7955 C.3     1  UNL1        0.0180
     22 C         139.1724  139.9550  168.2311 C.3     1  UNL1        0.0016
     23 C         139.8421  140.7439  169.3170 C.3     1  UNL1        0.0001
     24 C         140.6961  141.9263  168.9672 C.3     1  UNL1        0.0016
     25 C         139.5668  140.6978  166.1345 C.3     1  UNL1        0.0001
     26 C         138.6870  139.5597  165.7096 C.3     1  UNL1        0.0016
     27 C         138.5027  139.1661  167.1452 C.3     1  UNL1        0.0001
     28 C         139.5411  140.7421  165.3598 C.3     1  UNL1        0.0180
     29 C         140.8805  142.3199  167.5316 C.3     1  UNL1        0.0180
     30 C         137.6526  141.0349  162.2862 C.3     1  UNL1        0.0757
     31 S         137.7352  142.5199  162.4808 S.3     1  UNL1       -0.0938
@<TRIPOS>UNITY_ATOM_ATTR
14 1
charge -1
@<TRIPOS>BOND
     1    30    31    1
     2    31     1    1
     3     1     2   ar
     4     2     3   ar
     5     3     7    1
     6     7     8    1
     7     9     8    1
     8     9    10    1
     9    10    11    1
    10    10    12    1
    11    12    13    1
    12    13    14   ar
    13    13    15   ar
    14     3     4   ar
    15     4     5   ar
    16     5     6   ar
    17     6    16    1
    18    16    17    2
    19    16    18   am
    20    18    20    1
    21    20    21    1
    22    21    22    1
    23    22    23    1
    24    23    24    1
    25    24    25    1
    26    25    26    1
    27    26    27    1
    28    26    28    1
    29    24    29    1
    30     6     1   ar
    31    28    20    1
    32    11     7    1
    33    29    20    1
    34    12     9    1
    35    27    22    1
    36    18    19    1
@<TRIPOS>MOLECULE
*****
 31 36 0 0 0
SMALL
GASTEIGER

@<TRIPOS>ATOM
      1 C         141.4707  144.2488  162.3818 C.ar    1  UNL1        0.1124
      2 N         141.4328  144.8661  161.0153 N.ar    1  UNL1       -0.2243
      3 C         140.8689  144.0946  159.8592 C.ar    1  UNL1        0.1322
      4 C         140.3428  142.7057  160.0696 C.ar    1  UNL1        0.0345
      5 C         140.3807  142.0883  161.4361 C.ar    1  UNL1        0.0094
      6 C         140.9447  142.8599  162.5922 C.ar    1  UNL1        0.0769
      7 N         140.8309  144.7119  158.4926 N.pl3   1  UNL1       -0.2932
      8 C         139.7979  144.4525  157.4363 C.3     1  UNL1        0.0925
      9 C         140.1478  145.2772  156.2333 C.3     1  UNL1        0.0270
     10 C         141.3972  146.0463  156.5460 C.3     1  UNL1        0.0270
     11 C         141.8193  145.6969  157.9423 C.3     1  UNL1        0.0925
     12 C         140.7396  146.1964  155.2061 C.3     1  UNL1        0.0399
     13 C         140.7016  146.8136  153.8396 C.2     1  UNL1        0.0501
     14 O         140.2422  148.2314  153.6695 O.co2   1  UNL1       -0.5492
     15 O         141.1231  146.0131  152.6430 O.co2   1  UNL1       -0.5492
     16 C         140.9826  142.2426  163.9588 C.2     1  UNL1        0.2477
     17 O         142.2438  141.6018  164.4576 O.2     1  UNL1       -0.2701
     18 N         139.7594  142.2660  164.8266 N.am    1  UNL1       -0.3039
     19 H         138.9316  142.6865  164.4992 H       1  UNL1        0.1496
     20 C         139.7973  141.6487  166.1932 C.3     1  UNL1        0.0570
     21 C         139.1037  140.3429  166.4458 C.3     1  UNL1        0.0180
     22 C         139.1417  139.7256  167.8124 C.3     1  UNL1        0.0016
     23 C         139.8732  140.4142  168.9263 C.3     1  UNL1        0.0001
     24 C         140.5668  141.7199  168.6737 C.3     1  UNL1        0.0016
     25 C         139.1950  140.8058  165.8291 C.3     1  UNL1        0.0001
     26 C         138.3722  139.6544  165.3319 C.3     1  UNL1        0.0016
     27 C         138.4101  139.0371  166.6985 C.3     1  UNL1        0.0001
     28 C         139.0658  140.9601  165.0793 C.3     1  UNL1        0.0180
     29 C         140.5288  142.3372  167.3071 C.3     1  UNL1        0.0180
     30 C         143.5119  145.0090  163.7980 C.3     1  UNL1        0.0757
     31 S         142.0347  145.0204  163.5380 S.3     1  UNL1       -0.0938
@<TRIPOS>UNITY_ATOM_ATTR
14 1
charge -1
@<TRIPOS>BOND
     1    30    31    1
     2    31     1    1
     3     1     2   ar
     4     2     3   ar
     5     3     7    1
     6     7     8    1
     7     9     8    1
     8     9    10    1
     9    10    11    1
    10    10    12    1
    11    12    13    1
    12    13    14   ar
    13    13    15   ar
    14     3     4   ar
    15     4     5   ar
    16     5     6   ar
    17     6    16    1
    18    16    17    2
    19    16    18   am
    20    18    20    1
    21    20    21    1
    22    21    22    1
    23    22    23    1
    24    23    24    1
    25    24    25    1
    26    25    26    1
    27    26    27    1
    28    26    28    1
    29    24    29    1
    30     6     1   ar
    31    28    20    1
    32    11     7    1
    33    29    20    1
    34    12     9    1
    35    27    22    1
    36    18    19    1
@<TRIPOS>MOLECULE
*****
 31 36 0 0 0
SMALL
GASTEIGER

@<TRIPOS>ATOM
      1 C         142.5718  142.1477  163.2304 C.ar    1  UNL1        0.1124
      2 N         142.3491  142.6476  161.8339 N.ar    1  UNL1       -0.2243
      3 C         141.7135  143.9876  161.6094 C.ar    1  UNL1        0.1322
      4 C         141.3006  144.8277  162.7815 C.ar    1  UNL1        0.0345
      5 C         141.5233  144.3277  164.1781 C.ar    1  UNL1        0.0094
      6 C         142.1589  142.9878  164.4025 C.ar    1  UNL1        0.0769
      7 N         141.4908  144.4876  160.2128 N.pl3   1  UNL1       -0.2932
      8 C         142.2570  144.0681  158.9934 C.3     1  UNL1        0.0925
      9 C         141.7026  144.8160  157.8174 C.3     1  UNL1        0.0270
     10 C         140.5936  145.6979  158.3100 C.3     1  UNL1        0.0270
     11 C         140.4627  145.4949  159.7904 C.3     1  UNL1        0.0925
     12 C         140.9552  145.6899  156.8542 C.3     1  UNL1        0.0399
     13 C         140.7325  146.1899  155.4576 C.2     1  UNL1        0.0501
     14 O         141.6847  145.8077  154.3634 O.co2   1  UNL1       -0.5492
     15 O         139.5575  147.0720  155.1552 O.co2   1  UNL1       -0.5492
     16 C         142.3817  142.4878  165.7991 C.2     1  UNL1        0.2477
     17 O         143.7125  142.6842  166.4627 O.2     1  UNL1       -0.2701
     18 N         141.2736  141.7914  166.5321 N.am    1  UNL1       -0.3039
     19 H         140.4002  141.6626  166.0966 H       1  UNL1        0.1496
     20 C         141.4964  141.2914  167.9287 C.3     1  UNL1        0.0570
     21 C         141.0083  142.0928  169.0990 C.3     1  UNL1        0.0180
     22 C         141.2310  141.5928  170.4955 C.3     1  UNL1        0.0016
     23 C         141.9419  140.2914  170.7218 C.3     1  UNL1        0.0001
     24 C         142.4300  139.4901  169.5515 C.3     1  UNL1        0.0016
     25 C         140.9896  142.1802  168.3277 C.3     1  UNL1        0.0001
     26 C         140.2974  143.3941  168.8727 C.3     1  UNL1        0.0016
     27 C         140.5201  142.8941  170.2693 C.3     1  UNL1        0.0001
     28 C         140.7855  142.5928  167.7025 C.3     1  UNL1        0.0180
     29 C         142.2073  139.9901  168.1550 C.3     1  UNL1        0.0180
     30 C         144.7002  140.6916  163.5467 C.3     1  UNL1        0.0757
     31 S         143.2075  140.8077  163.4549 S.3     1  UNL1       -0.0938
@<TRIPOS>UNITY_ATOM_ATTR
14 1
charge -1
@<TRIPOS>BOND
     1    30    31    1
     2    31     1    1
     3     1     2   ar
     4     2     3   ar
     5     3     7    1
     6     7     8    1
     7     9     8    1
     8     9    10    1
     9    10    11    1
    10    10    12    1
    11    12    13    1
    12    13    14   ar
    13    13    15   ar
    14     3     4   ar
    15     4     5   ar
    16     5     6   ar
    17     6    16    1
    18    16    17    2
    19    16    18   am
    20    18    20    1
    21    20    21    1
    22    21    22    1
    23    22    23    1
    24    23    24    1
    25    24    25    1
    26    25    26    1
    27    26    27    1
    28    26    28    1
    29    24    29    1
    30     6     1   ar
    31    28    20    1
    32    11     7    1
    33    29    20    1
    34    12     9    1
    35    27    22    1
    36    18    19    1
@<TRIPOS>MOLECULE
*****
 31 36 0 0 0
SMALL
GASTEIGER

@<TRIPOS>ATOM
      1 C         143.0961  143.0437  161.7489 C.ar    1  UNL1        0.1124
      2 N         142.8182  143.6366  160.3995 N.ar    1  UNL1       -0.2243
      3 C         141.6314  144.5329  160.2042 C.ar    1  UNL1        0.1322
      4 C         140.7226  144.8363  161.3584 C.ar    1  UNL1        0.0345
      5 C         141.0006  144.2433  162.7078 C.ar    1  UNL1        0.0094
      6 C         142.1874  143.3470  162.9031 C.ar    1  UNL1        0.0769
      7 N         141.3534  145.1260  158.8547 N.pl3   1  UNL1       -0.2932
      8 C         140.0714  145.7749  158.4239 C.3     1  UNL1        0.0925
      9 C         140.2342  146.2242  157.0021 C.3     1  UNL1        0.0270
     10 C         141.6168  145.8528  156.5541 C.3     1  UNL1        0.0270
     11 C         142.3084  145.1741  157.6990 C.3     1  UNL1        0.0925
     12 C         140.6847  146.5521  155.6094 C.3     1  UNL1        0.0399
     13 C         140.4066  147.1451  154.2600 C.2     1  UNL1        0.0501
     14 O         140.9051  146.4596  153.0224 O.co2   1  UNL1       -0.5492
     15 O         139.6300  148.4236  154.1481 O.co2   1  UNL1       -0.5492
     16 C         142.4654  142.7540  164.2526 C.2     1  UNL1        0.2477
     17 O         143.4860  143.3846  165.1531 O.2     1  UNL1       -0.2701
     18 N         141.7229  141.5305  164.7016 N.am    1  UNL1       -0.3039
     19 H         141.0531  141.1167  164.1106 H       1  UNL1        0.1496
     20 C         142.0009  140.9375  166.0511 C.3     1  UNL1        0.0570
     21 C         142.7558  139.6460  166.1618 C.3     1  UNL1        0.0180
     22 C         143.0338  139.0531  167.5112 C.3     1  UNL1        0.0016
     23 C         142.5569  139.7516  168.7500 C.3     1  UNL1        0.0001
     24 C         141.8020  141.0430  168.6394 C.3     1  UNL1        0.0016
     25 C         142.5215  140.0964  165.5742 C.3     1  UNL1        0.0001
     26 C         143.2327  138.9475  164.9229 C.3     1  UNL1        0.0016
     27 C         143.5107  138.3546  166.2724 C.3     1  UNL1        0.0001
     28 C         142.4778  140.2390  164.8123 C.3     1  UNL1        0.0180
     29 C         141.5240  141.6360  167.2899 C.3     1  UNL1        0.0180
     30 C         144.2135  140.7089  161.5246 C.3     1  UNL1        0.0757
     31 S         144.2830  142.1473  161.9443 S.3     1  UNL1       -0.0938
@<TRIPOS>UNITY_ATOM_ATTR
14 1
charge -1
@<TRIPOS>BOND
     1    30    31    1
     2    31     1    1
     3     1     2   ar
     4     2     3   ar
     5     3     7    1
     6     7     8    1
     7     9     8    1
     8     9    10    1
     9    10    11    1
    10    10    12    1
    11    12    13    1
    12    13    14   ar
    13    13    15   ar
    14     3     4   ar
    15     4     5   ar
    16     5     6   ar
    17     6    16    1
    18    16    17    2
    19    16    18   am
    20    18    20    1
    21    20    21    1
    22    21    22    1
    23    22    23    1
    24    23    24    1
    25    24    25    1
    26    25    26    1
    27    26    27    1
    28    26    28    1
    29    24    29    1
    30     6     1   ar
    31    28    20    1
    32    11     7    1
    33    29    20    1
    34    12     9    1
    35    27    22    1
    36    18    19    1
@<TRIPOS>MOLECULE
*****
 31 36 0 0 0
SMALL
GASTEIGER

@<TRIPOS>ATOM
      1 C         141.6811  140.0822  162.1037 C.ar    1  UNL1        0.1124
      2 N         141.2335  140.5824  163.4452 N.ar    1  UNL1       -0.2243
      3 C         142.1869  141.3433  164.3181 C.ar    1  UNL1        0.1322
      4 C         143.5878  141.6041  163.8496 C.ar    1  UNL1        0.0345
      5 C         144.0353  141.1040  162.5082 C.ar    1  UNL1        0.0094
      6 C         143.0820  140.3430  161.6352 C.ar    1  UNL1        0.0769
      7 N         141.7393  141.8435  165.6596 N.pl3   1  UNL1       -0.2932
      8 C         142.5474  141.8217  166.9232 C.3     1  UNL1        0.0925
      9 C         141.7127  142.4181  168.0176 C.3     1  UNL1        0.0270
     10 C         140.3887  142.8084  167.4303 C.3     1  UNL1        0.0270
     11 C         140.4052  142.4533  165.9731 C.3     1  UNL1        0.0925
     12 C         140.6632  143.0464  168.8857 C.3     1  UNL1        0.0399
     13 C         140.2157  143.5466  170.2272 C.2     1  UNL1        0.0501
     14 O         139.9653  145.0106  170.4364 O.co2   1  UNL1       -0.5492
     15 O         140.0186  142.5826  171.3595 O.co2   1  UNL1       -0.5492
     16 C         143.5295  139.8428  160.2937 C.2     1  UNL1        0.2477
     17 O         144.2128  138.5124  160.1791 O.2     1  UNL1       -0.2701
     18 N         143.2939  140.6730  159.0669 N.am    1  UNL1       -0.3039
     19 H         142.8454  141.5462  159.1421 H       1  UNL1        0.1496
     20 C         143.7414  140.1728  157.7254 C.3     1  UNL1        0.0570
     21 C         144.8424  140.8786  156.9909 C.3     1  UNL1        0.0180
     22 C         145.2899  140.3784  155.6495 C.3     1  UNL1        0.0016
     23 C         144.6364  139.1724  155.0425 C.3     1  UNL1        0.0001
     24 C         143.5353  138.4666  155.7770 C.3     1  UNL1        0.0016
     25 C         144.4830  140.9809  157.6715 C.3     1  UNL1        0.0001
     26 C         145.4960  142.0846  157.5979 C.3     1  UNL1        0.0016
     27 C         145.9435  141.5844  156.2564 C.3     1  UNL1        0.0001
     28 C         144.3950  141.3788  158.3324 C.3     1  UNL1        0.0180
     29 C         143.0879  138.9668  157.1185 C.3     1  UNL1        0.0180
     30 C         140.1200  138.0408  161.7218 C.3     1  UNL1        0.0757
     31 S         140.7277  139.3212  161.2307 S.3     1  UNL1       -0.0938
@<TRIPOS>UNITY_ATOM_ATTR
14 1
charge -1
@<TRIPOS>BOND
     1    30    31    1
     2    31     1    1
     3     1     2   ar
     4     2     3   ar
     5     3     7    1
     6     7     8    1
     7     9     8    1
     8     9    10    1
     9    10    11    1
    10    10    12    1
    11    12    13    1
    12    13    14   ar
    13    13    15   ar
    14     3     4   ar
    15     4     5   ar
    16     5     6   ar
    17     6    16    1
    18    16    17    2
    19    16    18   am
    20    18    20    1
    21    20    21    1
    22    21    22    1
    23    22    23    1
    24    23    24    1
    25    24    25    1
    26    25    26    1
    27    26    27    1
    28    26    28    1
    29    24    29    1
    30     6     1   ar
    31    28    20    1
    32    11     7    1
    33    29    20    1
    34    12     9    1
    35    27    22    1
    36    18    19    1
@<TRIPOS>MOLECULE
*****
 31 36 0 0 0
SMALL
GASTEIGER

@<TRIPOS>ATOM
      1 C         139.4619  143.1370  163.5961 C.ar    1  UNL1        0.1124
      2 N         139.3698  143.8064  162.2570 N.ar    1  UNL1       -0.2243
      3 C         140.3185  143.4233  161.1602 C.ar    1  UNL1        0.1322
      4 C         141.3594  142.3707  161.4024 C.ar    1  UNL1        0.0345
      5 C         141.4515  141.7013  162.7416 C.ar    1  UNL1        0.0094
      6 C         140.5028  142.0844  163.8384 C.ar    1  UNL1        0.0769
      7 N         140.2264  144.0927  159.8209 N.pl3   1  UNL1       -0.2932
      8 C         139.7523  143.4564  158.5479 C.3     1  UNL1        0.0925
      9 C         139.8251  144.4864  157.4598 C.3     1  UNL1        0.0270
     10 C         140.3441  145.7592  158.0604 C.3     1  UNL1        0.0270
     11 C         140.5921  145.5159  159.5196 C.3     1  UNL1        0.0925
     12 C         140.0048  145.7025  156.6003 C.3     1  UNL1        0.0399
     13 C         139.9126  146.3718  155.2612 C.2     1  UNL1        0.0501
     14 O         141.0121  146.1937  154.2564 O.co2   1  UNL1       -0.5492
     15 O         138.7210  147.2193  154.9267 O.co2   1  UNL1       -0.5492
     16 C         140.5949  141.4150  165.1776 C.2     1  UNL1        0.2477
     17 O         139.7485  140.2128  165.4750 O.2     1  UNL1       -0.2701
     18 N         141.5335  141.9476  166.2194 N.am    1  UNL1       -0.3039
     19 H         142.0890  142.7366  166.0242 H       1  UNL1        0.1496
     20 C         141.6256  141.2782  167.5586 C.3     1  UNL1        0.0570
     21 C         140.9923  141.9144  168.7603 C.3     1  UNL1        0.0180
     22 C         141.0844  141.2450  170.0994 C.3     1  UNL1        0.0016
     23 C         141.8099  139.9393  170.2369 C.3     1  UNL1        0.0001
     24 C         142.4433  139.3031  169.0352 C.3     1  UNL1        0.0016
     25 C         141.0513  142.0990  168.0084 C.3     1  UNL1        0.0001
     26 C         140.2668  143.2201  168.6228 C.3     1  UNL1        0.0016
     27 C         140.3589  142.5506  169.9620 C.3     1  UNL1        0.0001
     28 C         140.9001  142.5839  167.4212 C.3     1  UNL1        0.0180
     29 C         142.3511  139.9725  167.6961 C.3     1  UNL1        0.0180
     30 C         138.6530  144.8485  165.3756 C.3     1  UNL1        0.0757
     31 S         138.5132  143.5201  164.6931 S.3     1  UNL1       -0.0938
@<TRIPOS>UNITY_ATOM_ATTR
14 1
charge -1
@<TRIPOS>BOND
     1    30    31    1
     2    31     1    1
     3     1     2   ar
     4     2     3   ar
     5     3     7    1
     6     7     8    1
     7     9     8    1
     8     9    10    1
     9    10    11    1
    10    10    12    1
    11    12    13    1
    12    13    14   ar
    13    13    15   ar
    14     3     4   ar
    15     4     5   ar
    16     5     6   ar
    17     6    16    1
    18    16    17    2
    19    16    18   am
    20    18    20    1
    21    20    21    1
    22    21    22    1
    23    22    23    1
    24    23    24    1
    25    24    25    1
    26    25    26    1
    27    26    27    1
    28    26    28    1
    29    24    29    1
    30     6     1   ar
    31    28    20    1
    32    11     7    1
    33    29    20    1
    34    12     9    1
    35    27    22    1
    36    18    19    1
@<TRIPOS>MOLECULE
*****
 31 36 0 0 0
SMALL
GASTEIGER

@<TRIPOS>ATOM
      1 C         139.0437  143.3173  162.4713 C.ar    1  UNL1        0.1124
      2 N         139.1016  143.7392  161.0330 N.ar    1  UNL1       -0.2243
      3 C         140.3787  144.2789  160.4606 C.ar    1  UNL1        0.1322
      4 C         141.5979  144.3968  161.3265 C.ar    1  UNL1        0.0345
      5 C         141.5400  143.9749  162.7647 C.ar    1  UNL1        0.0094
      6 C         140.2629  143.4351  163.3371 C.ar    1  UNL1        0.0769
      7 N         140.4367  144.7008  159.0223 N.pl3   1  UNL1       -0.2932
      8 C         141.2600  145.8243  158.4655 C.3     1  UNL1        0.0925
      9 C         141.0137  145.8912  156.9874 C.3     1  UNL1        0.0270
     10 C         140.0381  144.8090  156.6306 C.3     1  UNL1        0.0270
     11 C         139.6815  144.0734  157.8883 C.3     1  UNL1        0.0925
     12 C         140.5761  145.7156  155.5634 C.3     1  UNL1        0.0399
     13 C         140.6341  146.1375  154.1252 C.2     1  UNL1        0.0501
     14 O         140.5774  147.5932  153.7678 O.co2   1  UNL1       -0.5492
     15 O         140.7488  145.1037  153.0443 O.co2   1  UNL1       -0.5492
     16 C         140.2050  143.0132  164.7754 C.2     1  UNL1        0.2477
     17 O         139.4867  143.8660  165.7788 O.2     1  UNL1       -0.2701
     18 N         140.8653  141.7386  165.2103 N.am    1  UNL1       -0.3039
     19 H         141.3368  141.1788  164.5517 H       1  UNL1        0.1496
     20 C         140.8074  141.3166  166.6486 C.3     1  UNL1        0.0570
     21 C         141.9436  141.6423  167.5721 C.3     1  UNL1        0.0180
     22 C         141.8856  141.2204  169.0104 C.3     1  UNL1        0.0016
     23 C         140.6914  140.4728  169.5251 C.3     1  UNL1        0.0001
     24 C         139.5552  140.1471  168.6016 C.3     1  UNL1        0.0016
     25 C         141.7923  141.7703  166.8214 C.3     1  UNL1        0.0001
     26 C         143.1378  142.3900  167.0574 C.3     1  UNL1        0.0016
     27 C         143.0798  141.9680  168.4956 C.3     1  UNL1        0.0001
     28 C         142.0016  142.0643  166.1339 C.3     1  UNL1        0.0180
     29 C         139.6132  140.5690  167.1634 C.3     1  UNL1        0.0180
     30 C         137.4286  141.3247  162.8850 C.3     1  UNL1        0.0757
     31 S         137.7666  142.7775  163.0437 S.3     1  UNL1       -0.0938
@<TRIPOS>UNITY_ATOM_ATTR
14 1
charge -1
@<TRIPOS>BOND
     1    30    31    1
     2    31     1    1
     3     1     2   ar
     4     2     3   ar
     5     3     7    1
     6     7     8    1
     7     9     8    1
     8     9    10    1
     9    10    11    1
    10    10    12    1
    11    12    13    1
    12    13    14   ar
    13    13    15   ar
    14     3     4   ar
    15     4     5   ar
    16     5     6   ar
    17     6    16    1
    18    16    17    2
    19    16    18   am
    20    18    20    1
    21    20    21    1
    22    21    22    1
    23    22    23    1
    24    23    24    1
    25    24    25    1
    26    25    26    1
    27    26    27    1
    28    26    28    1
    29    24    29    1
    30     6     1   ar
    31    28    20    1
    32    11     7    1
    33    29    20    1
    34    12     9    1
    35    27    22    1
    36    18    19    1
@<TRIPOS>MOLECULE
*****
 31 36 0 0 0
SMALL
GASTEIGER

@<TRIPOS>ATOM
      1 C         143.2042  139.8007  163.7024 C.ar    1  UNL1        0.1124
      2 N         143.1134  139.4785  162.2403 N.ar    1  UNL1       -0.2243
      3 C         142.0207  138.5832  161.7361 C.ar    1  UNL1        0.1322
      4 C         141.0188  138.0100  162.6941 C.ar    1  UNL1        0.0345
      5 C         141.1096  138.3322  164.1562 C.ar    1  UNL1        0.0094
      6 C         142.2023  139.2276  164.6604 C.ar    1  UNL1        0.0769
      7 N         141.9298  138.2609  160.2739 N.pl3   1  UNL1       -0.2932
      8 C         142.9743  137.5565  159.4597 C.3     1  UNL1        0.0925
      9 C         142.4686  137.4467  158.0518 C.3     1  UNL1        0.0270
     10 C         141.1115  138.0833  157.9959 C.3     1  UNL1        0.0270
     11 C         140.7786  138.5865  159.3692 C.3     1  UNL1        0.0925
     12 C         141.7114  137.4859  156.7576 C.3     1  UNL1        0.0399
     13 C         141.6206  137.1637  155.2955 C.2     1  UNL1        0.0501
     14 O         142.7108  137.6001  154.3621 O.co2   1  UNL1       -0.5492
     15 O         140.4396  136.4049  154.7666 O.co2   1  UNL1       -0.5492
     16 C         142.2932  139.5498  166.1226 C.2     1  UNL1        0.2477
     17 O         143.2025  138.7536  167.0109 O.2     1  UNL1       -0.2701
     18 N         141.4748  140.6683  166.6963 N.am    1  UNL1       -0.3039
     19 H         140.8780  141.1909  166.1133 H       1  UNL1        0.1496
     20 C         141.5657  140.9905  168.1586 C.3     1  UNL1        0.0570
     21 C         140.4391  140.6244  169.0787 C.3     1  UNL1        0.0180
     22 C         140.5300  140.9466  170.5408 C.3     1  UNL1        0.0016
     23 C         141.7475  141.6350  171.0828 C.3     1  UNL1        0.0001
     24 C         142.8741  142.0012  170.1627 C.3     1  UNL1        0.0016
     25 C         140.5749  140.5448  168.3183 C.3     1  UNL1        0.0001
     26 C         139.2216  139.9360  168.5367 C.3     1  UNL1        0.0016
     27 C         139.3125  140.2582  169.9988 C.3     1  UNL1        0.0001
     28 C         140.3482  140.3021  167.6165 C.3     1  UNL1        0.0180
     29 C         142.7832  141.6789  168.7006 C.3     1  UNL1        0.0180
     30 C         145.2692  141.3090  163.2427 C.3     1  UNL1        0.0757
     31 S         144.2970  140.6961  164.2067 S.3     1  UNL1       -0.0938
@<TRIPOS>UNITY_ATOM_ATTR
14 1
charge -1
@<TRIPOS>BOND
     1    30    31    1
     2    31     1    1
     3     1     2   ar
     4     2     3   ar
     5     3     7    1
     6     7     8    1
     7     9     8    1
     8     9    10    1
     9    10    11    1
    10    10    12    1
    11    12    13    1
    12    13    14   ar
    13    13    15   ar
    14     3     4   ar
    15     4     5   ar
    16     5     6   ar
    17     6    16    1
    18    16    17    2
    19    16    18   am
    20    18    20    1
    21    20    21    1
    22    21    22    1
    23    22    23    1
    24    23    24    1
    25    24    25    1
    26    25    26    1
    27    26    27    1
    28    26    28    1
    29    24    29    1
    30     6     1   ar
    31    28    20    1
    32    11     7    1
    33    29    20    1
    34    12     9    1
    35    27    22    1
    36    18    19    1
@<TRIPOS>MOLECULE
*****
 31 36 0 0 0
SMALL
GASTEIGER

@<TRIPOS>ATOM
      1 C         139.9583  137.4714  156.5540 C.ar    1  UNL1        0.1124
      2 N         139.4331  138.5006  157.5105 N.ar    1  UNL1       -0.2243
      3 C         140.3093  139.0155  158.6137 C.ar    1  UNL1        0.1322
      4 C         141.7107  138.5012  158.7604 C.ar    1  UNL1        0.0345
      5 C         142.2359  137.4720  157.8039 C.ar    1  UNL1        0.0094
      6 C         141.3597  136.9571  156.7007 C.ar    1  UNL1        0.0769
      7 N         139.7842  140.0448  159.5702 N.pl3   1  UNL1       -0.2932
      8 C         140.5881  140.7848  160.5979 C.3     1  UNL1        0.0925
      9 C         139.6638  141.7121  161.3298 C.3     1  UNL1        0.0270
     10 C         138.2885  141.5451  160.7545 C.3     1  UNL1        0.0270
     11 C         138.3630  140.5147  159.6670 C.3     1  UNL1        0.0925
     12 C         138.5214  142.5200  161.8706 C.3     1  UNL1        0.0399
     13 C         137.9964  143.5492  162.8271 C.2     1  UNL1        0.0501
     14 O         137.6421  143.1569  164.2309 O.co2   1  UNL1       -0.5492
     15 O         137.8255  144.9708  162.3798 O.co2   1  UNL1       -0.5492
     16 C         141.8848  135.9278  155.7442 C.2     1  UNL1        0.2477
     17 O         142.6872  136.3536  154.5505 O.2     1  UNL1       -0.2701
     18 N         141.6075  134.4729  155.9813 N.am    1  UNL1       -0.3039
     19 H         141.0809  134.1935  156.7648 H       1  UNL1        0.1496
     20 C         142.1327  133.4436  155.0248 C.3     1  UNL1        0.0570
     21 C         143.2210  132.5056  155.4555 C.3     1  UNL1        0.0180
     22 C         143.7461  131.4764  154.4990 C.3     1  UNL1        0.0016
     23 C         143.1828  131.3853  153.1117 C.3     1  UNL1        0.0001
     24 C         142.0945  132.3233  152.6810 C.3     1  UNL1        0.0016
     25 C         142.8307  133.0857  155.7932 C.3     1  UNL1        0.0001
     26 C         143.7842  132.5967  156.8428 C.3     1  UNL1        0.0016
     27 C         144.3093  131.5675  155.8862 C.3     1  UNL1        0.0001
     28 C         142.6959  133.5348  156.4120 C.3     1  UNL1        0.0180
     29 C         141.5694  133.3525  153.6375 C.3     1  UNL1        0.0180
     30 C         138.2454  137.9102  154.6503 C.3     1  UNL1        0.0757
     31 S         139.0820  136.9565  155.4508 S.3     1  UNL1       -0.0938
@<TRIPOS>UNITY_ATOM_ATTR
14 1
charge -1
@<TRIPOS>BOND
     1    30    31    1
     2    31     1    1
     3     1     2   ar
     4     2     3   ar
     5     3     7    1
     6     7     8    1
     7     9     8    1
     8     9    10    1
     9    10    11    1
    10    10    12    1
    11    12    13    1
    12    13    14   ar
    13    13    15   ar
    14     3     4   ar
    15     4     5   ar
    16     5     6   ar
    17     6    16    1
    18    16    17    2
    19    16    18   am
    20    18    20    1
    21    20    21    1
    22    21    22    1
    23    22    23    1
    24    23    24    1
    25    24    25    1
    26    25    26    1
    27    26    27    1
    28    26    28    1
    29    24    29    1
    30     6     1   ar
    31    28    20    1
    32    11     7    1
    33    29    20    1
    34    12     9    1
    35    27    22    1
    36    18    19    1
