@<TRIPOS>MOLECULE
*****
 28 30 0 0 0
SMALL
GASTEIGER

@<TRIPOS>ATOM
      1 C         143.7269  139.7272  159.5815 C.3     1  UNL1        0.0532
      2 C         143.0405  140.5325  160.6447 C.ar    1  UNL1        0.0761
      3 N         142.1227  139.8584  161.6209 N.ar    1  UNL1       -0.2298
      4 C         141.4363  140.6637  162.6841 C.ar    1  UNL1        0.1650
      5 N         141.6677  142.1431  162.7710 N.ar    1  UNL1       -0.1918
      6 C         142.5855  142.8173  161.7948 C.ar    1  UNL1        0.2382
      7 C         143.2719  142.0120  160.7316 C.ar    1  UNL1        0.1242
      8 CL        144.1898  142.6862  159.7553 Cl      1  UNL1       -0.0761
      9 C         140.5184  139.9895  163.6604 C.ar    1  UNL1        0.0359
     10 C         140.4532  138.4920  163.7172 C.ar    1  UNL1        0.0030
     11 C         139.5354  137.8177  164.6934 C.ar    1  UNL1        0.0039
     12 C         138.6828  138.6410  165.6129 C.ar    1  UNL1        0.0714
     13 C         138.7480  140.1385  165.5561 C.ar    1  UNL1        0.0039
     14 C         139.6659  140.8127  164.5798 C.ar    1  UNL1        0.0030
     15 C         137.7650  137.9668  166.5891 C.3     1  UNL1        0.4186
     16 F         136.8472  137.2926  167.5653 F       1  UNL1       -0.1659
     17 F         138.1061  136.6347  165.9897 F       1  UNL1       -0.1659
     18 F         137.4239  139.2988  167.1884 F       1  UNL1       -0.1659
     19 O         142.8170  144.2968  161.8817 O.3     1  UNL1       -0.4596
     20 C         143.7863  144.8466  162.8858 C.3     1  UNL1        0.2086
     21 C         143.5903  144.5698  164.3470 C.3     1  UNL1        0.0647
     22 C         144.5379  143.6605  165.0718 C.3     1  UNL1        0.0759
     23 N         144.2986  142.1798  165.0788 N.3     1  UNL1       -0.2726
     24 C         143.3000  141.5859  166.0276 C.3     1  UNL1        0.0721
     25 C         143.0608  140.1051  166.0347 C.3     1  UNL1        0.0174
     26 C         143.8201  139.2182  165.0930 C.3     1  UNL1        0.0029
     27 C         144.8187  139.8120  164.1443 C.3     1  UNL1        0.0174
     28 C         145.0580  141.2928  164.1372 C.3     1  UNL1        0.0721
@<TRIPOS>BOND
     1     1     2    1
     2     2     3   ar
     3     3     4   ar
     4     4     9    1
     5     9    10   ar
     6    10    11   ar
     7    11    12   ar
     8    12    15    1
     9    15    16    1
    10    15    17    1
    11    15    18    1
    12    12    13   ar
    13    13    14   ar
    14     4     5   ar
    15     5     6   ar
    16     6    19    1
    17    19    20    1
    18    20    21    1
    19    21    22    1
    20    22    23    1
    21    23    24    1
    22    24    25    1
    23    25    26    1
    24    26    27    1
    25    27    28    1
    26     6     7   ar
    27     7     8    1
    28     7     2   ar
    29    14     9   ar
    30    28    23    1
@<TRIPOS>MOLECULE
*****
 28 30 0 0 0
SMALL
GASTEIGER

@<TRIPOS>ATOM
      1 C         139.3513  137.9415  161.6511 C.3     1  UNL1        0.0532
      2 C         139.1858  138.9809  162.7199 C.ar    1  UNL1        0.0761
      3 N         139.9641  138.8734  163.9976 N.ar    1  UNL1       -0.2298
      4 C         139.7985  139.9128  165.0663 C.ar    1  UNL1        0.1650
      5 N         138.8547  141.0597  164.8574 N.ar    1  UNL1       -0.1918
      6 C         138.0764  141.1672  163.5796 C.ar    1  UNL1        0.2382
      7 C         138.2419  140.1278  162.5109 C.ar    1  UNL1        0.1242
      8 CL        137.4635  140.2353  161.2331 Cl      1  UNL1       -0.0761
      9 C         140.5769  139.8053  166.3441 C.ar    1  UNL1        0.0359
     10 C         142.0079  139.3565  166.3151 C.ar    1  UNL1        0.0030
     11 C         142.7863  139.2490  167.5928 C.ar    1  UNL1        0.0039
     12 C         142.1337  139.5902  168.8996 C.ar    1  UNL1        0.0714
     13 C         140.7027  140.0390  168.9286 C.ar    1  UNL1        0.0039
     14 C         139.9243  140.1465  167.6509 C.ar    1  UNL1        0.0030
     15 C         142.9120  139.4827  170.1773 C.3     1  UNL1        0.4186
     16 F         143.6904  139.3751  171.4550 F       1  UNL1       -0.1659
     17 F         143.1693  140.9601  170.1449 F       1  UNL1       -0.1659
     18 F         142.6548  138.0053  170.2097 F       1  UNL1       -0.1659
     19 O         137.1324  142.3141  163.3706 O.3     1  UNL1       -0.4596
     20 C         137.6650  143.7110  163.2481 C.3     1  UNL1        0.2086
     21 C         139.0710  143.9391  162.7777 C.3     1  UNL1        0.0647
     22 C         139.9511  144.9209  163.4927 C.3     1  UNL1        0.0759
     23 N         141.3013  144.4954  163.9885 N.3     1  UNL1       -0.2726
     24 C         141.4364  143.2615  164.8308 C.3     1  UNL1        0.0721
     25 C         142.7865  142.8359  165.3265 C.3     1  UNL1        0.0174
     26 C         144.0017  143.6442  164.9800 C.3     1  UNL1        0.0029
     27 C         143.8667  144.8780  164.1377 C.3     1  UNL1        0.0174
     28 C         142.5165  145.3036  163.6420 C.3     1  UNL1        0.0721
@<TRIPOS>BOND
     1     1     2    1
     2     2     3   ar
     3     3     4   ar
     4     4     9    1
     5     9    10   ar
     6    10    11   ar
     7    11    12   ar
     8    12    15    1
     9    15    16    1
    10    15    17    1
    11    15    18    1
    12    12    13   ar
    13    13    14   ar
    14     4     5   ar
    15     5     6   ar
    16     6    19    1
    17    19    20    1
    18    20    21    1
    19    21    22    1
    20    22    23    1
    21    23    24    1
    22    24    25    1
    23    25    26    1
    24    26    27    1
    25    27    28    1
    26     6     7   ar
    27     7     8    1
    28     7     2   ar
    29    14     9   ar
    30    28    23    1
@<TRIPOS>MOLECULE
*****
 28 30 0 0 0
SMALL
GASTEIGER

@<TRIPOS>ATOM
      1 C         145.3059  141.8409  162.5032 C.3     1  UNL1        0.0532
      2 C         144.1443  141.1032  163.1002 C.ar    1  UNL1        0.0761
      3 N         143.5201  141.5918  164.3737 N.ar    1  UNL1       -0.2298
      4 C         142.3585  140.8540  164.9707 C.ar    1  UNL1        0.1650
      5 N         141.8212  139.6278  164.2944 N.ar    1  UNL1       -0.1918
      6 C         142.4454  139.1393  163.0209 C.ar    1  UNL1        0.2382
      7 C         143.6070  139.8770  162.4239 C.ar    1  UNL1        0.1242
      8 CL        144.2312  139.3884  161.1504 Cl      1  UNL1       -0.0761
      9 C         141.7343  141.3426  166.2442 C.ar    1  UNL1        0.0359
     10 C         140.9544  142.6239  166.2537 C.ar    1  UNL1        0.0030
     11 C         140.3302  143.1125  167.5271 C.ar    1  UNL1        0.0039
     12 C         140.4858  142.3198  168.7911 C.ar    1  UNL1        0.0714
     13 C         141.2658  141.0386  168.7816 C.ar    1  UNL1        0.0039
     14 C         141.8900  140.5500  167.5081 C.ar    1  UNL1        0.0030
     15 C         139.8616  142.8084  170.0645 C.3     1  UNL1        0.4186
     16 F         139.2374  143.2970  171.3379 F       1  UNL1       -0.1659
     17 F         140.6594  144.0751  169.9695 F       1  UNL1       -0.1659
     18 F         139.0638  141.5418  170.1594 F       1  UNL1       -0.1659
     19 O         141.9080  137.9130  162.3445 O.3     1  UNL1       -0.4596
     20 C         141.1958  138.0328  161.0299 C.3     1  UNL1        0.2086
     21 C         139.7998  138.5794  160.9802 C.3     1  UNL1        0.0647
     22 C         138.7508  138.0428  161.9085 C.3     1  UNL1        0.0759
     23 N         138.6297  138.5900  163.2998 N.3     1  UNL1       -0.2726
     24 C         138.2932  140.0366  163.5102 C.3     1  UNL1        0.0721
     25 C         138.1722  140.5839  164.9015 C.3     1  UNL1        0.0174
     26 C         138.3876  139.6845  166.0825 C.3     1  UNL1        0.0029
     27 C         138.7240  138.2380  165.8722 C.3     1  UNL1        0.0174
     28 C         138.8451  137.6907  164.4808 C.3     1  UNL1        0.0721
@<TRIPOS>BOND
     1     1     2    1
     2     2     3   ar
     3     3     4   ar
     4     4     9    1
     5     9    10   ar
     6    10    11   ar
     7    11    12   ar
     8    12    15    1
     9    15    16    1
    10    15    17    1
    11    15    18    1
    12    12    13   ar
    13    13    14   ar
    14     4     5   ar
    15     5     6   ar
    16     6    19    1
    17    19    20    1
    18    20    21    1
    19    21    22    1
    20    22    23    1
    21    23    24    1
    22    24    25    1
    23    25    26    1
    24    26    27    1
    25    27    28    1
    26     6     7   ar
    27     7     8    1
    28     7     2   ar
    29    14     9   ar
    30    28    23    1
@<TRIPOS>MOLECULE
*****
 28 30 0 0 0
SMALL
GASTEIGER

@<TRIPOS>ATOM
      1 C         144.0609  139.4151  160.9013 C.3     1  UNL1        0.0532
      2 C         143.5181  140.1810  162.0713 C.ar    1  UNL1        0.0761
      3 N         142.4051  139.6035  162.8945 N.ar    1  UNL1       -0.2298
      4 C         141.8623  140.3694  164.0644 C.ar    1  UNL1        0.1650
      5 N         142.4324  141.7128  164.4111 N.ar    1  UNL1       -0.1918
      6 C         143.5454  142.2903  163.5879 C.ar    1  UNL1        0.2382
      7 C         144.0882  141.5244  162.4179 C.ar    1  UNL1        0.1242
      8 CL        145.2012  142.1020  161.5947 Cl      1  UNL1       -0.0761
      9 C         140.7493  139.7918  164.8877 C.ar    1  UNL1        0.0359
     10 C         140.3899  140.4136  166.2046 C.ar    1  UNL1        0.0030
     11 C         139.2770  139.8361  167.0279 C.ar    1  UNL1        0.0039
     12 C         138.5234  138.6367  166.5342 C.ar    1  UNL1        0.0714
     13 C         138.8827  138.0149  165.2173 C.ar    1  UNL1        0.0039
     14 C         139.9957  138.5925  164.3941 C.ar    1  UNL1        0.0030
     15 C         137.4104  138.0592  167.3575 C.3     1  UNL1        0.4186
     16 F         136.2975  137.4817  168.1807 F       1  UNL1       -0.1659
     17 F         137.2854  136.9202  166.3895 F       1  UNL1       -0.1659
     18 F         137.5354  139.1982  168.3255 F       1  UNL1       -0.1659
     19 O         144.1155  143.6337  163.9346 O.3     1  UNL1       -0.4596
     20 C         143.5626  144.8715  163.2926 C.3     1  UNL1        0.2086
     21 C         142.1805  145.3418  163.6372 C.3     1  UNL1        0.0647
     22 C         141.0376  145.0554  162.7090 C.3     1  UNL1        0.0759
     23 N         139.9394  144.1272  163.1358 N.3     1  UNL1       -0.2726
     24 C         139.0802  144.4741  164.3154 C.3     1  UNL1        0.0721
     25 C         137.9819  143.5458  164.7422 C.3     1  UNL1        0.0174
     26 C         137.7428  142.2706  163.9893 C.3     1  UNL1        0.0029
     27 C         138.6019  141.9237  162.8097 C.3     1  UNL1        0.0174
     28 C         139.7002  142.8520  162.3829 C.3     1  UNL1        0.0721
@<TRIPOS>BOND
     1     1     2    1
     2     2     3   ar
     3     3     4   ar
     4     4     9    1
     5     9    10   ar
     6    10    11   ar
     7    11    12   ar
     8    12    15    1
     9    15    16    1
    10    15    17    1
    11    15    18    1
    12    12    13   ar
    13    13    14   ar
    14     4     5   ar
    15     5     6   ar
    16     6    19    1
    17    19    20    1
    18    20    21    1
    19    21    22    1
    20    22    23    1
    21    23    24    1
    22    24    25    1
    23    25    26    1
    24    26    27    1
    25    27    28    1
    26     6     7   ar
    27     7     8    1
    28     7     2   ar
    29    14     9   ar
    30    28    23    1
@<TRIPOS>MOLECULE
*****
 28 30 0 0 0
SMALL
GASTEIGER

@<TRIPOS>ATOM
      1 C         145.5969  141.9016  163.7249 C.3     1  UNL1        0.0532
      2 C         144.2036  141.6996  163.2073 C.ar    1  UNL1        0.0761
      3 N         143.1783  141.0142  164.0611 N.ar    1  UNL1       -0.2298
      4 C         141.7850  140.8122  163.5435 C.ar    1  UNL1        0.1650
      5 N         141.4170  141.2956  162.1721 N.ar    1  UNL1       -0.1918
      6 C         142.4422  141.9810  161.3183 C.ar    1  UNL1        0.2382
      7 C         143.8355  142.1830  161.8359 C.ar    1  UNL1        0.1242
      8 CL        144.8608  142.8685  160.9820 Cl      1  UNL1       -0.0761
      9 C         140.7598  140.1267  164.3974 C.ar    1  UNL1        0.0359
     10 C         140.3797  140.7094  165.7263 C.ar    1  UNL1        0.0030
     11 C         139.3545  140.0240  166.5802 C.ar    1  UNL1        0.0039
     12 C         138.7093  138.7558  166.1052 C.ar    1  UNL1        0.0714
     13 C         139.0893  138.1732  164.7762 C.ar    1  UNL1        0.0039
     14 C         140.1146  138.8586  163.9223 C.ar    1  UNL1        0.0030
     15 C         137.6841  138.0705  166.9590 C.3     1  UNL1        0.4186
     16 F         136.6589  137.3851  167.8129 F       1  UNL1       -0.1659
     17 F         137.6867  136.8992  166.0221 F       1  UNL1       -0.1659
     18 F         137.6814  139.2418  167.8960 F       1  UNL1       -0.1659
     19 O         142.0742  142.4645  159.9468 O.3     1  UNL1       -0.4596
     20 C         141.3106  143.7450  159.7829 C.3     1  UNL1        0.2086
     21 C         141.2908  144.7539  160.8928 C.3     1  UNL1        0.0647
     22 C         139.9821  145.2557  161.4271 C.3     1  UNL1        0.0759
     23 N         139.2265  144.4479  162.4401 N.3     1  UNL1       -0.2726
     24 C         139.2616  144.8382  163.8881 C.3     1  UNL1        0.0721
     25 C         138.5059  144.0305  164.9012 C.3     1  UNL1        0.0174
     26 C         137.7151  142.8323  164.4664 C.3     1  UNL1        0.0029
     27 C         137.6800  142.4419  163.0186 C.3     1  UNL1        0.0174
     28 C         138.4356  143.2497  162.0054 C.3     1  UNL1        0.0721
@<TRIPOS>BOND
     1     1     2    1
     2     2     3   ar
     3     3     4   ar
     4     4     9    1
     5     9    10   ar
     6    10    11   ar
     7    11    12   ar
     8    12    15    1
     9    15    16    1
    10    15    17    1
    11    15    18    1
    12    12    13   ar
    13    13    14   ar
    14     4     5   ar
    15     5     6   ar
    16     6    19    1
    17    19    20    1
    18    20    21    1
    19    21    22    1
    20    22    23    1
    21    23    24    1
    22    24    25    1
    23    25    26    1
    24    26    27    1
    25    27    28    1
    26     6     7   ar
    27     7     8    1
    28     7     2   ar
    29    14     9   ar
    30    28    23    1
@<TRIPOS>MOLECULE
*****
 28 30 0 0 0
SMALL
GASTEIGER

@<TRIPOS>ATOM
      1 C         144.4787  139.3913  162.6193 C.3     1  UNL1        0.0532
      2 C         143.0884  139.2554  163.1658 C.ar    1  UNL1        0.0761
      3 N         142.7086  139.9610  164.4337 N.ar    1  UNL1       -0.2298
      4 C         141.3183  139.8251  164.9802 C.ar    1  UNL1        0.1650
      5 N         140.3078  138.9835  164.2586 N.ar    1  UNL1       -0.1918
      6 C         140.6876  138.2779  162.9907 C.ar    1  UNL1        0.2382
      7 C         142.0779  138.4138  162.4442 C.ar    1  UNL1        0.1242
      8 CL        142.4577  137.7082  161.1762 Cl      1  UNL1       -0.0761
      9 C         140.9386  140.5307  166.2482 C.ar    1  UNL1        0.0359
     10 C         140.0087  139.8719  167.2235 C.ar    1  UNL1        0.0030
     11 C         139.6289  140.5775  168.4915 C.ar    1  UNL1        0.0039
     12 C         140.1790  141.9420  168.7843 C.ar    1  UNL1        0.0714
     13 C         141.1089  142.6008  167.8090 C.ar    1  UNL1        0.0039
     14 C         141.4887  141.8951  166.5409 C.ar    1  UNL1        0.0030
     15 C         139.7992  142.6476  170.0523 C.3     1  UNL1        0.4186
     16 F         139.4194  143.3532  171.3203 F       1  UNL1       -0.1659
     17 F         138.8405  141.5417  170.3805 F       1  UNL1       -0.1659
     18 F         140.7579  143.7535  169.7240 F       1  UNL1       -0.1659
     19 O         139.6771  137.4363  162.2691 O.3     1  UNL1       -0.4596
     20 C         138.7545  138.0658  161.2679 C.3     1  UNL1        0.2086
     21 C         137.7624  139.1008  161.7092 C.3     1  UNL1        0.0647
     22 C         137.9542  140.5370  161.3213 C.3     1  UNL1        0.0759
     23 N         137.9545  141.6047  162.3748 N.3     1  UNL1       -0.2726
     24 C         138.0127  141.2271  163.8254 C.3     1  UNL1        0.0721
     25 C         138.0130  142.2949  164.8789 C.3     1  UNL1        0.0174
     26 C         137.9551  143.7402  164.4819 C.3     1  UNL1        0.0029
     27 C         137.8968  144.1178  163.0315 C.3     1  UNL1        0.0174
     28 C         137.8965  143.0501  161.9779 C.3     1  UNL1        0.0721
@<TRIPOS>BOND
     1     1     2    1
     2     2     3   ar
     3     3     4   ar
     4     4     9    1
     5     9    10   ar
     6    10    11   ar
     7    11    12   ar
     8    12    15    1
     9    15    16    1
    10    15    17    1
    11    15    18    1
    12    12    13   ar
    13    13    14   ar
    14     4     5   ar
    15     5     6   ar
    16     6    19    1
    17    19    20    1
    18    20    21    1
    19    21    22    1
    20    22    23    1
    21    23    24    1
    22    24    25    1
    23    25    26    1
    24    26    27    1
    25    27    28    1
    26     6     7   ar
    27     7     8    1
    28     7     2   ar
    29    14     9   ar
    30    28    23    1
@<TRIPOS>MOLECULE
*****
 28 30 0 0 0
SMALL
GASTEIGER

@<TRIPOS>ATOM
      1 C         139.3045  144.9255  163.1403 C.3     1  UNL1        0.0532
      2 C         139.3039  143.4878  163.5680 C.ar    1  UNL1        0.0761
      3 N         140.0326  143.0752  164.8125 N.ar    1  UNL1       -0.2298
      4 C         140.0320  141.6374  165.2402 C.ar    1  UNL1        0.1650
      5 N         139.3027  140.6123  164.4234 N.ar    1  UNL1       -0.1918
      6 C         138.5740  141.0249  163.1789 C.ar    1  UNL1        0.2382
      7 C         138.5746  142.4626  162.7513 C.ar    1  UNL1        0.1242
      8 CL        137.8459  142.8752  161.5067 Cl      1  UNL1       -0.0761
      9 C         140.7607  141.2249  166.4847 C.ar    1  UNL1        0.0359
     10 C         142.1173  141.7916  166.7822 C.ar    1  UNL1        0.0030
     11 C         142.8460  141.3791  168.0267 C.ar    1  UNL1        0.0039
     12 C         142.2182  140.3998  168.9737 C.ar    1  UNL1        0.0714
     13 C         140.8616  139.8330  168.6762 C.ar    1  UNL1        0.0039
     14 C         140.1329  140.2456  167.4317 C.ar    1  UNL1        0.0030
     15 C         142.9469  139.9873  170.2182 C.3     1  UNL1        0.4186
     16 F         143.6757  139.5748  171.4626 F       1  UNL1       -0.1659
     17 F         143.7778  141.2340  170.1449 F       1  UNL1       -0.1659
     18 F         142.1161  138.7406  170.2915 F       1  UNL1       -0.1659
     19 O         137.8446  139.9997  162.3621 O.3     1  UNL1       -0.4596
     20 C         138.4839  138.6725  162.0797 C.3     1  UNL1        0.2086
     21 C         139.9154  138.6087  161.6359 C.3     1  UNL1        0.0647
     22 C         140.8494  137.6125  162.2565 C.3     1  UNL1        0.0759
     23 N         141.8820  138.0672  163.2449 N.3     1  UNL1       -0.2726
     24 C         143.1065  138.7921  162.7703 C.3     1  UNL1        0.0721
     25 C         144.1391  139.2468  163.7587 C.3     1  UNL1        0.0174
     26 C         143.9473  138.9765  165.2216 C.3     1  UNL1        0.0029
     27 C         142.7229  138.2516  165.6962 C.3     1  UNL1        0.0174
     28 C         141.6902  137.7969  164.7078 C.3     1  UNL1        0.0721
@<TRIPOS>BOND
     1     1     2    1
     2     2     3   ar
     3     3     4   ar
     4     4     9    1
     5     9    10   ar
     6    10    11   ar
     7    11    12   ar
     8    12    15    1
     9    15    16    1
    10    15    17    1
    11    15    18    1
    12    12    13   ar
    13    13    14   ar
    14     4     5   ar
    15     5     6   ar
    16     6    19    1
    17    19    20    1
    18    20    21    1
    19    21    22    1
    20    22    23    1
    21    23    24    1
    22    24    25    1
    23    25    26    1
    24    26    27    1
    25    27    28    1
    26     6     7   ar
    27     7     8    1
    28     7     2   ar
    29    14     9   ar
    30    28    23    1
@<TRIPOS>MOLECULE
*****
 28 30 0 0 0
SMALL
GASTEIGER

@<TRIPOS>ATOM
      1 C         144.1065  144.4254  162.7430 C.3     1  UNL1        0.0532
      2 C         143.2442  143.2174  162.9599 C.ar    1  UNL1        0.0761
      3 N         142.8316  142.8300  164.3491 N.ar    1  UNL1       -0.2298
      4 C         141.9692  141.6220  164.5660 C.ar    1  UNL1        0.1650
      5 N         141.5194  140.8014  163.3938 N.ar    1  UNL1       -0.1918
      6 C         141.9320  141.1887  162.0046 C.ar    1  UNL1        0.2382
      7 C         142.7944  142.3967  161.7877 C.ar    1  UNL1        0.1242
      8 CL        143.2069  142.7840  160.3985 Cl      1  UNL1       -0.0761
      9 C         141.5567  141.2347  165.9552 C.ar    1  UNL1        0.0359
     10 C         142.0758  139.9667  166.5657 C.ar    1  UNL1        0.0030
     11 C         141.6633  139.5794  167.9548 C.ar    1  UNL1        0.0039
     12 C         140.7316  140.4601  168.7336 C.ar    1  UNL1        0.0714
     13 C         140.2125  141.7281  168.1231 C.ar    1  UNL1        0.0039
     14 C         140.6250  142.1154  166.7339 C.ar    1  UNL1        0.0030
     15 C         140.3191  140.0728  170.1227 C.3     1  UNL1        0.4186
     16 F         139.9066  139.6854  171.5118 F       1  UNL1       -0.1659
     17 F         139.2196  141.0922  170.0805 F       1  UNL1       -0.1659
     18 F         141.4185  139.0533  170.1649 F       1  UNL1       -0.1659
     19 O         141.4822  140.3680  160.8323 O.3     1  UNL1       -0.4596
     20 C         141.0957  138.9317  161.0264 C.3     1  UNL1        0.2086
     21 C         139.7497  138.4493  160.5730 C.3     1  UNL1        0.0647
     22 C         138.5152  138.8601  161.3194 C.3     1  UNL1        0.0759
     23 N         138.5219  138.8938  162.8190 N.3     1  UNL1       -0.2726
     24 C         138.1206  140.1448  163.5430 C.3     1  UNL1        0.0721
     25 C         138.1273  140.1784  165.0425 C.3     1  UNL1        0.0174
     26 C         138.5353  138.9611  165.8182 C.3     1  UNL1        0.0029
     27 C         138.9366  137.7101  165.0943 C.3     1  UNL1        0.0174
     28 C         138.9299  137.6765  163.5947 C.3     1  UNL1        0.0721
@<TRIPOS>BOND
     1     1     2    1
     2     2     3   ar
     3     3     4   ar
     4     4     9    1
     5     9    10   ar
     6    10    11   ar
     7    11    12   ar
     8    12    15    1
     9    15    16    1
    10    15    17    1
    11    15    18    1
    12    12    13   ar
    13    13    14   ar
    14     4     5   ar
    15     5     6   ar
    16     6    19    1
    17    19    20    1
    18    20    21    1
    19    21    22    1
    20    22    23    1
    21    23    24    1
    22    24    25    1
    23    25    26    1
    24    26    27    1
    25    27    28    1
    26     6     7   ar
    27     7     8    1
    28     7     2   ar
    29    14     9   ar
    30    28    23    1
@<TRIPOS>MOLECULE
*****
 28 30 0 0 0
SMALL
GASTEIGER

@<TRIPOS>ATOM
      1 C         143.4600  144.7923  162.9633 C.3     1  UNL1        0.0532
      2 C         142.1379  144.1535  163.2695 C.ar    1  UNL1        0.0761
      3 N         141.9232  143.4677  164.5861 N.ar    1  UNL1       -0.2298
      4 C         140.6010  142.8288  164.8922 C.ar    1  UNL1        0.1650
      5 N         139.4935  142.8758  163.8817 N.ar    1  UNL1       -0.1918
      6 C         139.7081  143.5617  162.5651 C.ar    1  UNL1        0.2382
      7 C         141.0303  144.2005  162.2590 C.ar    1  UNL1        0.1242
      8 CL        141.2450  144.8864  160.9423 Cl      1  UNL1       -0.0761
      9 C         140.3864  142.1429  166.2089 C.ar    1  UNL1        0.0359
     10 C         140.7266  142.8502  167.4871 C.ar    1  UNL1        0.0030
     11 C         140.5120  142.1644  168.8038 C.ar    1  UNL1        0.0039
     12 C         139.9571  140.7713  168.8422 C.ar    1  UNL1        0.0714
     13 C         139.6169  140.0640  167.5639 C.ar    1  UNL1        0.0039
     14 C         139.8316  140.7499  166.2472 C.ar    1  UNL1        0.0030
     15 C         139.7425  140.0855  170.1588 C.3     1  UNL1        0.4186
     16 F         139.5279  139.3997  171.4755 F       1  UNL1       -0.1659
     17 F         138.3679  140.6797  170.2443 F       1  UNL1       -0.1659
     18 F         141.1172  139.4913  170.0734 F       1  UNL1       -0.1659
     19 O         138.6006  143.6087  161.5545 O.3     1  UNL1       -0.4596
     20 C         138.4592  142.5083  160.5450 C.3     1  UNL1        0.2086
     21 C         138.3393  141.0840  160.9999 C.3     1  UNL1        0.0647
     22 C         139.5566  140.2093  161.0554 C.3     1  UNL1        0.0759
     23 N         139.7878  139.3201  162.2410 N.3     1  UNL1       -0.2726
     24 C         141.1867  139.0156  162.6888 C.3     1  UNL1        0.0721
     25 C         141.4178  138.1264  163.8744 C.3     1  UNL1        0.0174
     26 C         140.2501  137.5416  164.6124 C.3     1  UNL1        0.0029
     27 C         138.8513  137.8461  164.1647 C.3     1  UNL1        0.0174
     28 C         138.6201  138.7353  162.9790 C.3     1  UNL1        0.0721
@<TRIPOS>BOND
     1     1     2    1
     2     2     3   ar
     3     3     4   ar
     4     4     9    1
     5     9    10   ar
     6    10    11   ar
     7    11    12   ar
     8    12    15    1
     9    15    16    1
    10    15    17    1
    11    15    18    1
    12    12    13   ar
    13    13    14   ar
    14     4     5   ar
    15     5     6   ar
    16     6    19    1
    17    19    20    1
    18    20    21    1
    19    21    22    1
    20    22    23    1
    21    23    24    1
    22    24    25    1
    23    25    26    1
    24    26    27    1
    25    27    28    1
    26     6     7   ar
    27     7     8    1
    28     7     2   ar
    29    14     9   ar
    30    28    23    1
