@<TRIPOS>MOLECULE
*****
 44 49 0 0 0
SMALL
GASTEIGER

@<TRIPOS>ATOM
      1 C         141.0567  143.2199  157.5025 C.ar    1  UNL1        0.1450
      2 C         141.1273  144.7180  157.4761 C.ar    1  UNL1        0.0371
      3 C         140.8268  145.5049  158.7173 C.ar    1  UNL1       -0.0014
      4 C         140.4558  144.7938  159.9848 C.ar    1  UNL1       -0.0258
      5 C         140.3853  143.2956  160.0112 C.ar    1  UNL1       -0.0215
      6 C         140.6857  142.5087  158.7700 C.ar    1  UNL1        0.0330
      7 C         140.0143  142.5845  161.2786 C.3     1  UNL1        0.0457
      8 C         139.7138  143.3714  162.5198 C.3     1  UNL1        0.0765
      9 C         139.7843  144.8694  162.4935 C.3     1  UNL1        0.0246
     10 C         140.1554  145.5807  161.2260 C.3     1  UNL1        0.0277
     11 N         139.3428  142.6601  163.7873 N.am    1  UNL1       -0.3021
     12 C         140.4147  142.0960  164.6721 C.2     1  UNL1        0.2458
     13 O         141.8576  142.2431  164.2893 O.2     1  UNL1       -0.2701
     14 H         138.3958  142.5636  164.0385 H       1  UNL1        0.1497
     15 C         140.0437  141.3848  165.9396 C.ar    1  UNL1        0.0531
     16 C         139.0712  140.2434  165.9021 C.ar    1  UNL1        0.0083
     17 C         138.7002  139.5322  167.1695 C.ar    1  UNL1        0.0713
     18 C         139.3018  139.9623  168.4746 C.ar    1  UNL1        0.0019
     19 C         140.2744  141.1037  168.5121 C.ar    1  UNL1        0.0044
     20 C         140.6453  141.8149  167.2445 C.ar    1  UNL1        0.0025
     21 C         140.8760  141.5339  169.8170 C.3     1  UNL1        0.1357
     22 O         141.5360  142.6928  169.1307 O.3     1  UNL1       -0.3799
     23 C         140.2160  140.3749  170.5034 C.3     1  UNL1        0.1015
     24 N         140.8176  140.8050  171.8083 N.3     1  UNL1       -0.2929
     25 C         141.4776  141.9640  171.1220 C.3     1  UNL1        0.1015
     26 H         141.3115  142.6804  168.1872 H       1  UNL1        0.2108
     27 H         141.4705  140.1310  172.2081 H       1  UNL1        0.1234
     28 C         137.7276  138.3908  167.1320 C.3     1  UNL1        0.4186
     29 F         136.7551  137.2495  167.0945 F       1  UNL1       -0.1659
     30 F         137.2367  138.7642  168.4994 F       1  UNL1       -0.1659
     31 F         138.2186  138.0174  165.7647 F       1  UNL1       -0.1659
     32 O         141.3572  142.4330  156.2613 O.3     1  UNL1       -0.4537
     33 O         148.1073  141.4429  155.4214 O.2     1  UNL1       -0.2747
     34 C         146.6266  141.3784  155.6527 C.2     1  UNL1        0.2275
     35 C         145.7992  142.6265  155.5674 C.3     1  UNL1        0.0903
     36 C         144.3185  142.5620  155.7987 C.3     1  UNL1        0.0419
     37 C         143.6653  141.2494  156.1153 C.ar    1  UNL1        0.0445
     38 C         142.1847  141.1849  156.3466 C.ar    1  UNL1        0.1455
     39 C         141.5315  139.8722  156.6631 C.ar    1  UNL1        0.0579
     40 C         142.3590  138.6240  156.7484 C.ar    1  UNL1        0.1034
     41 N         143.8397  138.6885  156.5171 N.ar    1  UNL1       -0.2291
     42 C         144.4928  140.0012  156.2005 C.ar    1  UNL1        0.1330
     43 N         145.9735  140.0657  155.9692 N.am    1  UNL1       -0.2695
     44 H         146.5166  139.2465  156.0252 H       1  UNL1        0.1562
@<TRIPOS>BOND
     1    33    34    2
     2    34    35    1
     3    35    36    1
     4    36    37    1
     5    37    38   ar
     6    38    32    1
     7    32     1    1
     8     1     2   ar
     9     2     3   ar
    10     3     4   ar
    11     4     5   ar
    12     5     6   ar
    13     5     7    1
    14     7     8    1
    15     8    11    1
    16    11    12   am
    17    12    13    2
    18    12    15    1
    19    15    16   ar
    20    16    17   ar
    21    17    28    1
    22    28    29    1
    23    28    30    1
    24    28    31    1
    25    17    18   ar
    26    18    19   ar
    27    19    21    1
    28    21    22    1
    29    21    23    1
    30    23    24    1
    31    24    25    1
    32    19    20   ar
    33     8     9    1
    34     9    10    1
    35    38    39   ar
    36    39    40   ar
    37    40    41   ar
    38    41    42   ar
    39    42    43    1
    40    43    34   am
    41    42    37   ar
    42     6     1   ar
    43    20    15   ar
    44    10     4    1
    45    25    21    1
    46    11    14    1
    47    22    26    1
    48    24    27    1
    49    43    44    1
@<TRIPOS>MOLECULE
*****
 44 49 0 0 0
SMALL
GASTEIGER

@<TRIPOS>ATOM
      1 C         141.3229  143.6408  157.5959 C.ar    1  UNL1        0.1450
      2 C         141.2358  145.1380  157.6203 C.ar    1  UNL1        0.0371
      3 C         140.7898  145.8432  158.8669 C.ar    1  UNL1       -0.0014
      4 C         140.4309  145.0511  160.0890 C.ar    1  UNL1       -0.0258
      5 C         140.5180  143.5537  160.0647 C.ar    1  UNL1       -0.0215
      6 C         140.9640  142.8486  158.8181 C.ar    1  UNL1        0.0330
      7 C         140.1591  142.7616  161.2868 C.3     1  UNL1        0.0457
      8 C         139.7131  143.4668  162.5334 C.3     1  UNL1        0.0765
      9 C         139.6260  144.9640  162.5578 C.3     1  UNL1        0.0246
     10 C         139.9849  145.7562  161.3356 C.3     1  UNL1        0.0277
     11 N         139.3542  142.6746  163.7556 N.am    1  UNL1       -0.3021
     12 C         140.4079  142.3425  164.7702 C.2     1  UNL1        0.2458
     13 O         141.8204  142.8025  164.5626 O.2     1  UNL1       -0.2701
     14 H         138.4271  142.3726  163.8918 H       1  UNL1        0.1497
     15 C         140.0490  141.5503  165.9924 C.ar    1  UNL1        0.0531
     16 C         139.1393  140.3633  165.8764 C.ar    1  UNL1        0.0083
     17 C         138.7805  139.5712  167.0985 C.ar    1  UNL1        0.0713
     18 C         139.3313  139.9660  168.4368 C.ar    1  UNL1        0.0019
     19 C         140.2410  141.1530  168.5527 C.ar    1  UNL1        0.0044
     20 C         140.5999  141.9452  167.3305 C.ar    1  UNL1        0.0025
     21 C         140.7919  141.5479  169.8908 C.3     1  UNL1        0.1357
     22 O         141.3725  142.7911  169.2849 O.3     1  UNL1       -0.3799
     23 C         140.2112  140.3047  170.4967 C.3     1  UNL1        0.1015
     24 N         140.7620  140.6996  171.8349 N.3     1  UNL1       -0.2929
     25 C         141.3427  141.9428  171.2289 C.3     1  UNL1        0.1015
     26 H         141.1618  142.8184  168.3385 H       1  UNL1        0.2108
     27 H         141.4581  140.0529  172.2059 H       1  UNL1        0.1234
     28 C         137.8708  138.3841  166.9826 C.3     1  UNL1        0.4186
     29 F         136.9611  137.1971  166.8666 F       1  UNL1       -0.1659
     30 F         137.2454  138.7347  168.3002 F       1  UNL1       -0.1659
     31 F         138.4961  138.0336  165.6650 F       1  UNL1       -0.1659
     32 O         141.7689  142.9356  156.3494 O.3     1  UNL1       -0.4537
     33 O         141.8262  136.0649  156.5481 O.2     1  UNL1       -0.2747
     34 C         142.0973  137.5398  156.5123 C.2     1  UNL1        0.2275
     35 C         140.9556  138.5111  156.4568 C.3     1  UNL1        0.0903
     36 C         141.2267  139.9859  156.4210 C.3     1  UNL1        0.0419
     37 C         142.6395  140.4895  156.4406 C.ar    1  UNL1        0.0445
     38 C         142.9106  141.9644  156.4048 C.ar    1  UNL1        0.1455
     39 C         144.3234  142.4679  156.4244 C.ar    1  UNL1        0.0579
     40 C         145.4651  141.4966  156.4798 C.ar    1  UNL1        0.1034
     41 N         145.1941  140.0218  156.5156 N.ar    1  UNL1       -0.2291
     42 C         143.7812  139.5182  156.4960 C.ar    1  UNL1        0.1330
     43 N         143.5101  138.0433  156.5319 N.am    1  UNL1       -0.2695
     44 H         144.2594  137.4059  156.5682 H       1  UNL1        0.1562
@<TRIPOS>BOND
     1    33    34    2
     2    34    35    1
     3    35    36    1
     4    36    37    1
     5    37    38   ar
     6    38    32    1
     7    32     1    1
     8     1     2   ar
     9     2     3   ar
    10     3     4   ar
    11     4     5   ar
    12     5     6   ar
    13     5     7    1
    14     7     8    1
    15     8    11    1
    16    11    12   am
    17    12    13    2
    18    12    15    1
    19    15    16   ar
    20    16    17   ar
    21    17    28    1
    22    28    29    1
    23    28    30    1
    24    28    31    1
    25    17    18   ar
    26    18    19   ar
    27    19    21    1
    28    21    22    1
    29    21    23    1
    30    23    24    1
    31    24    25    1
    32    19    20   ar
    33     8     9    1
    34     9    10    1
    35    38    39   ar
    36    39    40   ar
    37    40    41   ar
    38    41    42   ar
    39    42    43    1
    40    43    34   am
    41    42    37   ar
    42     6     1   ar
    43    20    15   ar
    44    10     4    1
    45    25    21    1
    46    11    14    1
    47    22    26    1
    48    24    27    1
    49    43    44    1
@<TRIPOS>MOLECULE
*****
 44 49 0 0 0
SMALL
GASTEIGER

@<TRIPOS>ATOM
      1 C         143.9178  139.9607  157.7057 C.ar    1  UNL1        0.1450
      2 C         144.5350  141.3106  157.4894 C.ar    1  UNL1        0.0371
      3 C         144.6238  142.2855  158.6260 C.ar    1  UNL1       -0.0014
      4 C         144.0953  141.9105  159.9788 C.ar    1  UNL1       -0.0258
      5 C         143.4781  140.5605  160.1951 C.ar    1  UNL1       -0.0215
      6 C         143.3894  139.5856  159.0585 C.ar    1  UNL1        0.0330
      7 C         142.9497  140.1855  161.5479 C.3     1  UNL1        0.0457
      8 C         143.0384  141.1604  162.6844 C.3     1  UNL1        0.0765
      9 C         143.6556  142.5103  162.4681 C.3     1  UNL1        0.0246
     10 C         144.1841  142.8854  161.1153 C.3     1  UNL1        0.0277
     11 N         142.5100  140.7853  164.0372 N.am    1  UNL1       -0.3021
     12 C         141.1316  141.2109  164.4484 C.2     1  UNL1        0.2458
     13 O         140.2817  142.0116  163.5067 O.2     1  UNL1       -0.2701
     14 H         143.0678  140.2598  164.6553 H       1  UNL1        0.1497
     15 C         140.6031  140.8359  165.8011 C.ar    1  UNL1        0.0531
     16 C         139.4387  139.8975  165.9177 C.ar    1  UNL1        0.0083
     17 C         138.9103  139.5224  167.2705 C.ar    1  UNL1        0.0713
     18 C         139.5462  140.0858  168.5068 C.ar    1  UNL1        0.0019
     19 C         140.7106  141.0242  168.3902 C.ar    1  UNL1        0.0044
     20 C         141.2390  141.3992  167.0373 C.ar    1  UNL1        0.0025
     21 C         141.3465  141.5876  169.6264 C.3     1  UNL1        0.1357
     22 O         142.6399  141.7539  168.8852 O.3     1  UNL1       -0.3799
     23 C         140.0530  141.4213  170.3675 C.3     1  UNL1        0.1015
     24 N         140.6889  141.9847  171.6037 N.3     1  UNL1       -0.2929
     25 C         141.9824  142.1510  170.8625 C.3     1  UNL1        0.1015
     26 H         142.5310  141.4463  167.9718 H       1  UNL1        0.2108
     27 H         140.7371  141.3286  172.3832 H       1  UNL1        0.1234
     28 C         137.7459  138.5840  167.3871 C.3     1  UNL1        0.4186
     29 F         136.5815  137.6456  167.5037 F       1  UNL1       -0.1659
     30 F         138.0342  138.0556  166.0131 F       1  UNL1       -0.1659
     31 F         137.4576  139.1124  168.7610 F       1  UNL1       -0.1659
     32 O         143.8291  138.9858  156.5692 O.3     1  UNL1       -0.4537
     33 O         142.1581  132.3762  155.6910 O.2     1  UNL1       -0.2747
     34 C         142.2478  133.8673  155.8270 C.2     1  UNL1        0.2275
     35 C         143.5601  134.5124  156.1611 C.3     1  UNL1        0.0903
     36 C         143.6498  136.0035  156.2971 C.3     1  UNL1        0.0419
     37 C         142.4271  136.8496  156.0991 C.ar    1  UNL1        0.0445
     38 C         142.5168  138.3407  156.2351 C.ar    1  UNL1        0.1455
     39 C         141.2941  139.1868  156.0371 C.ar    1  UNL1        0.0579
     40 C         139.9817  138.5417  155.7030 C.ar    1  UNL1        0.1034
     41 N         139.8920  137.0506  155.5670 N.ar    1  UNL1       -0.2291
     42 C         141.1148  136.2045  155.7650 C.ar    1  UNL1        0.1330
     43 N         141.0251  134.7134  155.6290 N.am    1  UNL1       -0.2695
     44 H         140.1638  134.2900  155.4098 H       1  UNL1        0.1562
@<TRIPOS>BOND
     1    33    34    2
     2    34    35    1
     3    35    36    1
     4    36    37    1
     5    37    38   ar
     6    38    32    1
     7    32     1    1
     8     1     2   ar
     9     2     3   ar
    10     3     4   ar
    11     4     5   ar
    12     5     6   ar
    13     5     7    1
    14     7     8    1
    15     8    11    1
    16    11    12   am
    17    12    13    2
    18    12    15    1
    19    15    16   ar
    20    16    17   ar
    21    17    28    1
    22    28    29    1
    23    28    30    1
    24    28    31    1
    25    17    18   ar
    26    18    19   ar
    27    19    21    1
    28    21    22    1
    29    21    23    1
    30    23    24    1
    31    24    25    1
    32    19    20   ar
    33     8     9    1
    34     9    10    1
    35    38    39   ar
    36    39    40   ar
    37    40    41   ar
    38    41    42   ar
    39    42    43    1
    40    43    34   am
    41    42    37   ar
    42     6     1   ar
    43    20    15   ar
    44    10     4    1
    45    25    21    1
    46    11    14    1
    47    22    26    1
    48    24    27    1
    49    43    44    1
@<TRIPOS>MOLECULE
*****
 44 49 0 0 0
SMALL
GASTEIGER

@<TRIPOS>ATOM
      1 C         140.2978  144.7397  157.4199 C.ar    1  UNL1        0.1450
      2 C         141.7665  144.8976  157.1588 C.ar    1  UNL1        0.0371
      3 C         142.7650  144.3239  158.1200 C.ar    1  UNL1       -0.0014
      4 C         142.2949  143.5925  159.3423 C.ar    1  UNL1       -0.0258
      5 C         140.8262  143.4346  159.6034 C.ar    1  UNL1       -0.0215
      6 C         139.8277  144.0083  158.6422 C.ar    1  UNL1        0.0330
      7 C         140.3560  142.7032  160.8256 C.3     1  UNL1        0.0457
      8 C         141.3545  142.1296  161.7868 C.3     1  UNL1        0.0765
      9 C         142.8232  142.2874  161.5258 C.3     1  UNL1        0.0246
     10 C         143.2934  143.0188  160.3035 C.3     1  UNL1        0.0277
     11 N         140.8844  141.3981  163.0091 N.am    1  UNL1       -0.3021
     12 C         140.6976  142.1380  164.3005 C.2     1  UNL1        0.2458
     13 O         140.9811  143.6094  164.3696 O.2     1  UNL1       -0.2701
     14 H         140.6983  140.4324  162.9638 H       1  UNL1        0.1497
     15 C         140.2274  141.4066  165.5228 C.ar    1  UNL1        0.0531
     16 C         139.4559  140.1280  165.3813 C.ar    1  UNL1        0.0083
     17 C         138.9858  139.3966  166.6036 C.ar    1  UNL1        0.0713
     18 C         139.2871  139.9438  167.9674 C.ar    1  UNL1        0.0019
     19 C         140.0586  141.2224  168.1088 C.ar    1  UNL1        0.0044
     20 C         140.5288  141.9538  166.8865 C.ar    1  UNL1        0.0025
     21 C         140.3600  141.7696  169.4725 C.3     1  UNL1        0.1357
     22 O         140.5499  143.1355  168.8825 O.3     1  UNL1       -0.3799
     23 C         140.1700  140.4037  170.0626 C.3     1  UNL1        0.1015
     24 N         140.4714  140.9509  171.4263 N.3     1  UNL1       -0.2929
     25 C         140.6613  142.3168  170.8362 C.3     1  UNL1        0.1015
     26 H         140.4071  143.0963  167.9238 H       1  UNL1        0.2108
     27 H         141.3113  140.5619  171.8548 H       1  UNL1        0.1234
     28 C         138.2143  138.1180  166.4621 C.3     1  UNL1        0.4186
     29 F         137.4428  136.8395  166.3207 F       1  UNL1       -0.1659
     30 F         139.2299  137.6139  165.4801 F       1  UNL1       -0.1659
     31 F         137.1987  138.6222  167.4441 F       1  UNL1       -0.1659
     32 O         139.2993  145.3134  156.4587 O.3     1  UNL1       -0.4537
     33 O         138.5407  152.0462  155.2998 O.2     1  UNL1       -0.2747
     34 C         138.8462  150.5777  155.3047 C.2     1  UNL1        0.2275
     35 C         138.3829  149.7190  156.4440 C.3     1  UNL1        0.0903
     36 C         138.6884  148.2505  156.4489 C.3     1  UNL1        0.0419
     37 C         139.4572  147.6406  155.3145 C.ar    1  UNL1        0.0445
     38 C         139.7627  146.1720  155.3194 C.ar    1  UNL1        0.1455
     39 C         140.5315  145.5621  154.1850 C.ar    1  UNL1        0.0579
     40 C         140.9948  146.4208  153.0456 C.ar    1  UNL1        0.1034
     41 N         140.6894  147.8893  153.0407 N.ar    1  UNL1       -0.2291
     42 C         139.9205  148.4992  154.1752 C.ar    1  UNL1        0.1330
     43 N         139.6150  149.9678  154.1703 N.am    1  UNL1       -0.2695
     44 H         139.9191  150.5313  153.4226 H       1  UNL1        0.1562
@<TRIPOS>BOND
     1    33    34    2
     2    34    35    1
     3    35    36    1
     4    36    37    1
     5    37    38   ar
     6    38    32    1
     7    32     1    1
     8     1     2   ar
     9     2     3   ar
    10     3     4   ar
    11     4     5   ar
    12     5     6   ar
    13     5     7    1
    14     7     8    1
    15     8    11    1
    16    11    12   am
    17    12    13    2
    18    12    15    1
    19    15    16   ar
    20    16    17   ar
    21    17    28    1
    22    28    29    1
    23    28    30    1
    24    28    31    1
    25    17    18   ar
    26    18    19   ar
    27    19    21    1
    28    21    22    1
    29    21    23    1
    30    23    24    1
    31    24    25    1
    32    19    20   ar
    33     8     9    1
    34     9    10    1
    35    38    39   ar
    36    39    40   ar
    37    40    41   ar
    38    41    42   ar
    39    42    43    1
    40    43    34   am
    41    42    37   ar
    42     6     1   ar
    43    20    15   ar
    44    10     4    1
    45    25    21    1
    46    11    14    1
    47    22    26    1
    48    24    27    1
    49    43    44    1
@<TRIPOS>MOLECULE
*****
 44 49 0 0 0
SMALL
GASTEIGER

@<TRIPOS>ATOM
      1 C         140.1219  144.1605  157.5175 C.ar    1  UNL1        0.1450
      2 C         140.3869  145.6285  157.6746 C.ar    1  UNL1        0.0371
      3 C         140.3501  146.2558  159.0367 C.ar    1  UNL1       -0.0014
      4 C         140.0483  145.4150  160.2417 C.ar    1  UNL1       -0.0258
      5 C         139.7833  143.9470  160.0846 C.ar    1  UNL1       -0.0215
      6 C         139.8201  143.3197  158.7226 C.ar    1  UNL1        0.0330
      7 C         139.4815  143.1062  161.2896 C.3     1  UNL1        0.0457
      8 C         139.4448  143.7335  162.6517 C.3     1  UNL1        0.0765
      9 C         139.7098  145.2015  162.8087 C.3     1  UNL1        0.0246
     10 C         140.0116  146.0423  161.6037 C.3     1  UNL1        0.0277
     11 N         139.1430  142.8926  163.8567 N.am    1  UNL1       -0.3021
     12 C         140.2571  142.4384  164.7524 C.2     1  UNL1        0.2458
     13 O         141.6731  142.8250  164.4430 O.2     1  UNL1       -0.2701
     14 H         138.2136  142.6389  164.0597 H       1  UNL1        0.1497
     15 C         139.9554  141.5976  165.9573 C.ar    1  UNL1        0.0531
     16 C         139.0985  140.3739  165.8225 C.ar    1  UNL1        0.0083
     17 C         138.7967  139.5331  167.0275 C.ar    1  UNL1        0.0713
     18 C         139.3519  139.9160  168.3674 C.ar    1  UNL1        0.0019
     19 C         140.2088  141.1398  168.5022 C.ar    1  UNL1        0.0044
     20 C         140.5106  141.9806  167.2971 C.ar    1  UNL1        0.0025
     21 C         140.7640  141.5227  169.8420 C.3     1  UNL1        0.1357
     22 O         141.3944  142.7399  169.2329 O.3     1  UNL1       -0.3799
     23 C         140.1337  140.3055  170.4511 C.3     1  UNL1        0.1015
     24 N         140.6888  140.6885  171.7909 N.3     1  UNL1       -0.2929
     25 C         141.3192  141.9057  171.1818 C.3     1  UNL1        0.1015
     26 H         141.1918  142.7688  168.2847 H       1  UNL1        0.2108
     27 H         141.3579  140.0191  172.1711 H       1  UNL1        0.1234
     28 C         137.9398  138.3094  166.8927 C.3     1  UNL1        0.4186
     29 F         137.0829  137.0856  166.7578 F       1  UNL1       -0.1659
     30 F         138.6658  137.9398  165.6332 F       1  UNL1       -0.1659
     31 F         137.2138  138.6790  168.1521 F       1  UNL1       -0.1659
     32 O         140.1587  143.5333  156.1555 O.3     1  UNL1       -0.4537
     33 O         138.5859  136.8576  155.6953 O.2     1  UNL1       -0.2747
     34 C         138.6746  138.3548  155.6747 C.2     1  UNL1        0.2275
     35 C         139.8927  139.0416  156.2173 C.3     1  UNL1        0.0903
     36 C         139.9814  140.5388  156.1967 C.3     1  UNL1        0.0419
     37 C         138.8519  141.3493  155.6335 C.ar    1  UNL1        0.0445
     38 C         138.9405  142.8466  155.6129 C.ar    1  UNL1        0.1455
     39 C         137.8110  143.6571  155.0497 C.ar    1  UNL1        0.0579
     40 C         136.5928  142.9703  154.5070 C.ar    1  UNL1        0.1034
     41 N         136.5041  141.4731  154.5277 N.ar    1  UNL1       -0.2291
     42 C         137.6337  140.6626  155.0909 C.ar    1  UNL1        0.1330
     43 N         137.5451  139.1654  155.1115 N.am    1  UNL1       -0.2695
     44 H         136.7455  138.7146  154.7554 H       1  UNL1        0.1562
@<TRIPOS>BOND
     1    33    34    2
     2    34    35    1
     3    35    36    1
     4    36    37    1
     5    37    38   ar
     6    38    32    1
     7    32     1    1
     8     1     2   ar
     9     2     3   ar
    10     3     4   ar
    11     4     5   ar
    12     5     6   ar
    13     5     7    1
    14     7     8    1
    15     8    11    1
    16    11    12   am
    17    12    13    2
    18    12    15    1
    19    15    16   ar
    20    16    17   ar
    21    17    28    1
    22    28    29    1
    23    28    30    1
    24    28    31    1
    25    17    18   ar
    26    18    19   ar
    27    19    21    1
    28    21    22    1
    29    21    23    1
    30    23    24    1
    31    24    25    1
    32    19    20   ar
    33     8     9    1
    34     9    10    1
    35    38    39   ar
    36    39    40   ar
    37    40    41   ar
    38    41    42   ar
    39    42    43    1
    40    43    34   am
    41    42    37   ar
    42     6     1   ar
    43    20    15   ar
    44    10     4    1
    45    25    21    1
    46    11    14    1
    47    22    26    1
    48    24    27    1
    49    43    44    1
@<TRIPOS>MOLECULE
*****
 44 49 0 0 0
SMALL
GASTEIGER

@<TRIPOS>ATOM
      1 C         143.7285  142.3078  164.5509 C.ar    1  UNL1        0.1450
      2 C         145.0989  141.8851  164.1114 C.ar    1  UNL1        0.0371
      3 C         145.4421  141.8546  162.6515 C.ar    1  UNL1       -0.0014
      4 C         144.4150  142.2467  161.6312 C.ar    1  UNL1       -0.0258
      5 C         143.0445  142.6695  162.0707 C.ar    1  UNL1       -0.0215
      6 C         142.7012  142.7000  163.5305 C.ar    1  UNL1        0.0330
      7 C         142.0174  143.0616  161.0503 C.3     1  UNL1        0.0457
      8 C         142.3606  143.0311  159.5905 C.3     1  UNL1        0.0765
      9 C         143.7310  142.6083  159.1509 C.3     1  UNL1        0.0246
     10 C         144.7583  142.2162  160.1713 C.3     1  UNL1        0.0277
     11 N         141.3334  143.4233  158.5701 N.am    1  UNL1       -0.3021
     12 C         141.2854  144.8321  158.0573 C.2     1  UNL1        0.2458
     13 O         142.2647  145.8487  158.5649 O.2     1  UNL1       -0.2701
     14 H         140.6907  142.7560  158.2370 H       1  UNL1        0.1497
     15 C         140.2583  145.2243  157.0370 C.ar    1  UNL1        0.0531
     16 C         140.2992  146.5901  156.4182 C.ar    1  UNL1        0.0083
     17 C         139.2721  146.9823  155.3979 C.ar    1  UNL1        0.0713
     18 C         138.2039  146.0087  154.9963 C.ar    1  UNL1        0.0019
     19 C         138.1630  144.6429  155.6151 C.ar    1  UNL1        0.0044
     20 C         139.1902  144.2507  156.6355 C.ar    1  UNL1        0.0025
     21 C         137.0949  143.6693  155.2136 C.3     1  UNL1        0.1357
     22 O         136.9267  144.3915  153.9098 O.3     1  UNL1       -0.3799
     23 C         137.2631  142.9471  156.5175 C.3     1  UNL1        0.1015
     24 N         136.1950  141.9735  156.1160 N.3     1  UNL1       -0.2929
     25 C         136.0268  142.6957  154.8121 C.3     1  UNL1        0.1015
     26 H         137.5416  145.1408  153.8735 H       1  UNL1        0.2108
     27 H         135.3680  141.9932  156.7126 H       1  UNL1        0.1234
     28 C         139.3130  148.3481  154.7791 C.3     1  UNL1        0.4186
     29 F         139.3539  149.7139  154.1603 F       1  UNL1       -0.1659
     30 F         138.5320  148.8959  155.9366 F       1  UNL1       -0.1659
     31 F         140.0940  147.8002  153.6216 F       1  UNL1       -0.1659
     32 O         143.3852  142.3384  166.0108 O.3     1  UNL1       -0.4537
     33 O         140.3788  142.2071  172.1909 O.2     1  UNL1       -0.2747
     34 C         140.8450  142.0341  170.7758 C.2     1  UNL1        0.2275
     35 C         141.9864  142.8572  170.2563 C.3     1  UNL1        0.0903
     36 C         142.4527  142.6842  168.8411 C.3     1  UNL1        0.0419
     37 C         141.7776  141.6883  167.9454 C.ar    1  UNL1        0.0445
     38 C         142.2438  141.5154  166.5303 C.ar    1  UNL1        0.1455
     39 C         141.5688  140.5195  165.6346 C.ar    1  UNL1        0.0579
     40 C         140.4273  139.6964  166.1540 C.ar    1  UNL1        0.1034
     41 N         139.9611  139.8693  167.5692 N.ar    1  UNL1       -0.2291
     42 C         140.6362  140.8653  168.4649 C.ar    1  UNL1        0.1330
     43 N         140.1700  141.0382  169.8801 N.am    1  UNL1       -0.2695
     44 H         139.4208  140.4980  170.2210 H       1  UNL1        0.1562
@<TRIPOS>BOND
     1    33    34    2
     2    34    35    1
     3    35    36    1
     4    36    37    1
     5    37    38   ar
     6    38    32    1
     7    32     1    1
     8     1     2   ar
     9     2     3   ar
    10     3     4   ar
    11     4     5   ar
    12     5     6   ar
    13     5     7    1
    14     7     8    1
    15     8    11    1
    16    11    12   am
    17    12    13    2
    18    12    15    1
    19    15    16   ar
    20    16    17   ar
    21    17    28    1
    22    28    29    1
    23    28    30    1
    24    28    31    1
    25    17    18   ar
    26    18    19   ar
    27    19    21    1
    28    21    22    1
    29    21    23    1
    30    23    24    1
    31    24    25    1
    32    19    20   ar
    33     8     9    1
    34     9    10    1
    35    38    39   ar
    36    39    40   ar
    37    40    41   ar
    38    41    42   ar
    39    42    43    1
    40    43    34   am
    41    42    37   ar
    42     6     1   ar
    43    20    15   ar
    44    10     4    1
    45    25    21    1
    46    11    14    1
    47    22    26    1
    48    24    27    1
    49    43    44    1
@<TRIPOS>MOLECULE
*****
 44 49 0 0 0
SMALL
GASTEIGER

@<TRIPOS>ATOM
      1 C         140.0659  140.0923  165.4665 C.ar    1  UNL1        0.1450
      2 C         139.3323  141.4003  165.4379 C.ar    1  UNL1        0.0371
      3 C         138.6755  141.8644  164.1718 C.ar    1  UNL1       -0.0014
      4 C         138.7521  141.0204  162.9342 C.ar    1  UNL1       -0.0258
      5 C         139.4857  139.7123  162.9627 C.ar    1  UNL1       -0.0215
      6 C         140.1426  139.2482  164.2288 C.ar    1  UNL1        0.0330
      7 C         139.5624  138.8683  161.7250 C.3     1  UNL1        0.0457
      8 C         138.9055  139.3323  160.4589 C.3     1  UNL1        0.0765
      9 C         138.1720  140.6404  160.4303 C.3     1  UNL1        0.0246
     10 C         138.0953  141.4845  161.6680 C.3     1  UNL1        0.0277
     11 N         138.9822  138.4883  159.2212 N.am    1  UNL1       -0.3021
     12 C         140.1225  138.6645  158.2627 C.2     1  UNL1        0.2458
     13 O         141.1860  139.6849  158.5419 O.2     1  UNL1       -0.2701
     14 H         138.2842  137.8186  159.0380 H       1  UNL1        0.1497
     15 C         140.1992  137.8205  157.0251 C.ar    1  UNL1        0.0531
     16 C         139.1694  137.9767  155.9457 C.ar    1  UNL1        0.0083
     17 C         139.2462  137.1327  154.7081 C.ar    1  UNL1        0.0713
     18 C         140.3527  136.1324  154.5498 C.ar    1  UNL1        0.0019
     19 C         141.3826  135.9762  155.6292 C.ar    1  UNL1        0.0044
     20 C         141.3058  136.8203  156.8669 C.ar    1  UNL1        0.0025
     21 C         142.4891  134.9760  155.4710 C.3     1  UNL1        0.1357
     22 O         141.9610  134.6060  154.1167 O.3     1  UNL1       -0.3799
     23 C         143.0172  135.3461  156.8253 C.3     1  UNL1        0.1015
     24 N         144.1238  134.3459  156.6671 N.3     1  UNL1       -0.2929
     25 C         143.5957  133.9758  155.3128 C.3     1  UNL1        0.1015
     26 H         141.1725  135.1360  153.9213 H       1  UNL1        0.2108
     27 H         144.0978  133.5853  157.3462 H       1  UNL1        0.1234
     28 C         138.2163  137.2889  153.6287 C.3     1  UNL1        0.4186
     29 F         137.1865  137.4451  152.5493 F       1  UNL1       -0.1659
     30 F         139.2768  137.0853  152.5875 F       1  UNL1       -0.1659
     31 F         137.1559  137.4926  154.6699 F       1  UNL1       -0.1659
     32 O         140.7228  139.6282  166.7327 O.3     1  UNL1       -0.4537
     33 O         143.6974  144.0029  171.1217 O.2     1  UNL1       -0.2747
     34 C         142.8376  143.0419  170.3554 C.2     1  UNL1        0.2275
     35 C         143.3021  142.5114  169.0315 C.3     1  UNL1        0.0903
     36 C         142.4423  141.5503  168.2652 C.3     1  UNL1        0.0419
     37 C         141.1181  141.1198  168.8228 C.ar    1  UNL1        0.0445
     38 C         140.2583  140.1587  168.0566 C.ar    1  UNL1        0.1455
     39 C         138.9341  139.7282  168.6142 C.ar    1  UNL1        0.0579
     40 C         138.4695  140.2587  169.9382 C.ar    1  UNL1        0.1034
     41 N         139.3293  141.2198  170.7044 N.ar    1  UNL1       -0.2291
     42 C         140.6536  141.6503  170.1467 C.ar    1  UNL1        0.1330
     43 N         141.5134  142.6114  170.9130 N.am    1  UNL1       -0.2695
     44 H         141.2085  142.9595  171.7820 H       1  UNL1        0.1562
@<TRIPOS>BOND
     1    33    34    2
     2    34    35    1
     3    35    36    1
     4    36    37    1
     5    37    38   ar
     6    38    32    1
     7    32     1    1
     8     1     2   ar
     9     2     3   ar
    10     3     4   ar
    11     4     5   ar
    12     5     6   ar
    13     5     7    1
    14     7     8    1
    15     8    11    1
    16    11    12   am
    17    12    13    2
    18    12    15    1
    19    15    16   ar
    20    16    17   ar
    21    17    28    1
    22    28    29    1
    23    28    30    1
    24    28    31    1
    25    17    18   ar
    26    18    19   ar
    27    19    21    1
    28    21    22    1
    29    21    23    1
    30    23    24    1
    31    24    25    1
    32    19    20   ar
    33     8     9    1
    34     9    10    1
    35    38    39   ar
    36    39    40   ar
    37    40    41   ar
    38    41    42   ar
    39    42    43    1
    40    43    34   am
    41    42    37   ar
    42     6     1   ar
    43    20    15   ar
    44    10     4    1
    45    25    21    1
    46    11    14    1
    47    22    26    1
    48    24    27    1
    49    43    44    1
@<TRIPOS>MOLECULE
*****
 44 49 0 0 0
SMALL
GASTEIGER

@<TRIPOS>ATOM
      1 C         142.1007  142.3398  164.0782 C.ar    1  UNL1        0.1450
      2 C         142.7359  143.5830  163.5294 C.ar    1  UNL1        0.0371
      3 C         143.3667  143.5650  162.1686 C.ar    1  UNL1       -0.0014
      4 C         143.3623  142.3039  161.3565 C.ar    1  UNL1       -0.0258
      5 C         142.7271  141.0606  161.9052 C.ar    1  UNL1       -0.0215
      6 C         142.0963  141.0786  163.2661 C.ar    1  UNL1        0.0330
      7 C         142.7226  139.7995  161.0932 C.3     1  UNL1        0.0457
      8 C         143.3534  139.7816  159.7323 C.3     1  UNL1        0.0765
      9 C         143.9886  141.0247  159.1836 C.3     1  UNL1        0.0246
     10 C         143.9931  142.2859  159.9957 C.3     1  UNL1        0.0277
     11 N         143.3490  138.5204  158.9202 N.am    1  UNL1       -0.3021
     12 C         142.2847  138.2974  157.8870 C.2     1  UNL1        0.2458
     13 O         141.2248  139.3356  157.6659 O.2     1  UNL1       -0.2701
     14 H         144.0446  137.8390  159.0654 H       1  UNL1        0.1497
     15 C         142.2802  137.0363  157.0750 C.ar    1  UNL1        0.0531
     16 C         141.4717  136.9591  155.8139 C.ar    1  UNL1        0.0083
     17 C         141.4672  135.6980  155.0018 C.ar    1  UNL1        0.0713
     18 C         142.2713  134.5140  155.4508 C.ar    1  UNL1        0.0019
     19 C         143.0798  134.5911  156.7119 C.ar    1  UNL1        0.0044
     20 C         143.0843  135.8523  157.5240 C.ar    1  UNL1        0.0025
     21 C         143.8839  133.4071  157.1609 C.3     1  UNL1        0.1357
     22 O         143.7371  133.8483  158.5870 O.3     1  UNL1       -0.3799
     23 C         144.0306  132.9659  155.7348 C.3     1  UNL1        0.1015
     24 N         144.8346  131.7819  156.1838 N.3     1  UNL1       -0.2929
     25 C         144.6879  132.2231  157.6099 C.3     1  UNL1        0.1015
     26 H         143.2153  134.6653  158.6206 H       1  UNL1        0.2108
     27 H         145.7969  131.7796  155.8455 H       1  UNL1        0.1234
     28 C         140.6587  135.6209  153.7407 C.3     1  UNL1        0.4186
     29 F         139.8502  135.5437  152.4796 F       1  UNL1       -0.1659
     30 F         141.6786  134.6974  153.1433 F       1  UNL1       -0.1659
     31 F         139.6388  136.5444  154.3381 F       1  UNL1       -0.1659
     32 O         141.4699  142.3578  165.4390 O.3     1  UNL1       -0.4537
     33 O         140.4371  142.2099  172.2332 O.2     1  UNL1       -0.2747
     34 C         140.8011  141.9972  170.7936 C.2     1  UNL1        0.2275
     35 C         140.3780  142.9959  169.7576 C.3     1  UNL1        0.0903
     36 C         140.7419  142.7832  168.3180 C.3     1  UNL1        0.0419
     37 C         141.5291  141.5718  167.9146 C.ar    1  UNL1        0.0445
     38 C         141.8931  141.3591  166.4750 C.ar    1  UNL1        0.1455
     39 C         142.6802  140.1477  166.0715 C.ar    1  UNL1        0.0579
     40 C         143.1034  139.1489  167.1076 C.ar    1  UNL1        0.1034
     41 N         142.7394  139.3616  168.5472 N.ar    1  UNL1       -0.2291
     42 C         141.9523  140.5731  168.9506 C.ar    1  UNL1        0.1330
     43 N         141.5883  140.7858  170.3902 N.am    1  UNL1       -0.2695
     44 H         141.8660  140.1303  171.0702 H       1  UNL1        0.1562
@<TRIPOS>BOND
     1    33    34    2
     2    34    35    1
     3    35    36    1
     4    36    37    1
     5    37    38   ar
     6    38    32    1
     7    32     1    1
     8     1     2   ar
     9     2     3   ar
    10     3     4   ar
    11     4     5   ar
    12     5     6   ar
    13     5     7    1
    14     7     8    1
    15     8    11    1
    16    11    12   am
    17    12    13    2
    18    12    15    1
    19    15    16   ar
    20    16    17   ar
    21    17    28    1
    22    28    29    1
    23    28    30    1
    24    28    31    1
    25    17    18   ar
    26    18    19   ar
    27    19    21    1
    28    21    22    1
    29    21    23    1
    30    23    24    1
    31    24    25    1
    32    19    20   ar
    33     8     9    1
    34     9    10    1
    35    38    39   ar
    36    39    40   ar
    37    40    41   ar
    38    41    42   ar
    39    42    43    1
    40    43    34   am
    41    42    37   ar
    42     6     1   ar
    43    20    15   ar
    44    10     4    1
    45    25    21    1
    46    11    14    1
    47    22    26    1
    48    24    27    1
    49    43    44    1
@<TRIPOS>MOLECULE
*****
 44 49 0 0 0
SMALL
GASTEIGER

@<TRIPOS>ATOM
      1 C         141.5672  142.5919  165.4096 C.ar    1  UNL1        0.1450
      2 C         140.3647  143.3040  165.9544 C.ar    1  UNL1        0.0371
      3 C         139.6302  144.2958  165.1019 C.ar    1  UNL1       -0.0014
      4 C         140.0982  144.5755  163.7045 C.ar    1  UNL1       -0.0258
      5 C         141.3008  143.8634  163.1596 C.ar    1  UNL1       -0.0215
      6 C         142.0353  142.8716  164.0121 C.ar    1  UNL1        0.0330
      7 C         141.7688  144.1432  161.7623 C.3     1  UNL1        0.0457
      8 C         141.0344  145.1350  160.9097 C.3     1  UNL1        0.0765
      9 C         139.8319  145.8471  161.4545 C.3     1  UNL1        0.0246
     10 C         139.3638  145.5674  162.8520 C.3     1  UNL1        0.0277
     11 N         141.5025  145.4148  159.5123 N.am    1  UNL1       -0.3021
     12 C         140.7966  144.7896  158.3457 C.2     1  UNL1        0.2458
     13 O         139.6227  143.8847  158.5765 O.2     1  UNL1       -0.2701
     14 H         142.2729  146.0087  159.3609 H       1  UNL1        0.1497
     15 C         141.2647  145.0693  156.9483 C.ar    1  UNL1        0.0531
     16 C         140.6062  146.1465  156.1383 C.ar    1  UNL1        0.0083
     17 C         141.0742  146.4262  154.7409 C.ar    1  UNL1        0.0713
     18 C         142.2008  145.6287  154.1535 C.ar    1  UNL1        0.0019
     19 C         142.8593  144.5515  154.9636 C.ar    1  UNL1        0.0044
     20 C         142.3912  144.2719  156.3610 C.ar    1  UNL1        0.0025
     21 C         143.9858  143.7541  154.3762 C.3     1  UNL1        0.1357
     22 O         144.3668  143.2820  155.7481 O.3     1  UNL1       -0.3799
     23 C         143.6048  144.2261  153.0044 C.3     1  UNL1        0.1015
     24 N         144.7313  143.4287  152.4171 N.3     1  UNL1       -0.2929
     25 C         145.1123  142.9566  153.7889 C.3     1  UNL1        0.1015
     26 H         143.7621  143.6665  156.4019 H       1  UNL1        0.2108
     27 H         145.4458  143.9932  151.9576 H       1  UNL1        0.1234
     28 C         140.4158  147.5033  153.9309 C.3     1  UNL1        0.4186
     29 F         139.7573  148.5804  153.1208 F       1  UNL1       -0.1659
     30 F         139.7790  148.0493  155.1745 F       1  UNL1       -0.1659
     31 F         141.0525  146.9573  152.6873 F       1  UNL1       -0.1659
     32 O         142.3016  141.6000  166.2621 O.3     1  UNL1       -0.4537
     33 O         137.6278  139.4346  170.8136 O.2     1  UNL1       -0.2747
     34 C         138.7854  140.0056  170.0494 C.2     1  UNL1        0.2275
     35 C         138.8288  139.8873  168.5547 C.3     1  UNL1        0.0903
     36 C         139.9864  140.4582  167.7905 C.3     1  UNL1        0.0419
     37 C         141.1006  141.1474  168.5210 C.ar    1  UNL1        0.0445
     38 C         142.2582  141.7183  167.7568 C.ar    1  UNL1        0.1455
     39 C         143.3723  142.4075  168.4872 C.ar    1  UNL1        0.0579
     40 C         143.3289  142.5259  169.9820 C.ar    1  UNL1        0.1034
     41 N         142.1713  141.9550  170.7462 N.ar    1  UNL1       -0.2291
     42 C         141.0571  141.2657  170.0156 C.ar    1  UNL1        0.1330
     43 N         139.8995  140.6948  170.7799 N.am    1  UNL1       -0.2695
     44 H         139.8710  140.7724  171.7609 H       1  UNL1        0.1562
@<TRIPOS>BOND
     1    33    34    2
     2    34    35    1
     3    35    36    1
     4    36    37    1
     5    37    38   ar
     6    38    32    1
     7    32     1    1
     8     1     2   ar
     9     2     3   ar
    10     3     4   ar
    11     4     5   ar
    12     5     6   ar
    13     5     7    1
    14     7     8    1
    15     8    11    1
    16    11    12   am
    17    12    13    2
    18    12    15    1
    19    15    16   ar
    20    16    17   ar
    21    17    28    1
    22    28    29    1
    23    28    30    1
    24    28    31    1
    25    17    18   ar
    26    18    19   ar
    27    19    21    1
    28    21    22    1
    29    21    23    1
    30    23    24    1
    31    24    25    1
    32    19    20   ar
    33     8     9    1
    34     9    10    1
    35    38    39   ar
    36    39    40   ar
    37    40    41   ar
    38    41    42   ar
    39    42    43    1
    40    43    34   am
    41    42    37   ar
    42     6     1   ar
    43    20    15   ar
    44    10     4    1
    45    25    21    1
    46    11    14    1
    47    22    26    1
    48    24    27    1
    49    43    44    1
