@<TRIPOS>MOLECULE
*****
 33 36 0 0 0
SMALL
GASTEIGER

@<TRIPOS>ATOM
      1 C         139.5631  140.7482  164.8429 C.ar    1  UNL1        0.0728
      2 C         138.3714  139.8388  164.7928 C.ar    1  UNL1        0.1034
      3 N         137.8850  139.1702  166.0443 N.ar    1  UNL1       -0.2422
      4 C         138.5904  139.4110  167.3460 C.ar    1  UNL1        0.0988
      5 C         139.7822  140.3205  167.3961 C.ar    1  UNL1        0.0195
      6 C         140.2686  140.9891  166.1446 C.ar    1  UNL1        0.0076
      7 C         140.4876  140.5613  168.6978 C.ar    1  UNL1        0.0058
      8 C         140.1020  141.7304  169.5547 C.ar    1  UNL1        0.0208
      9 C         140.8074  141.9713  170.8564 C.ar    1  UNL1        0.1003
     10 N         141.8984  141.0430  171.3012 N.ar    1  UNL1       -0.2294
     11 C         142.2841  139.8739  170.4443 C.ar    1  UNL1        0.1285
     12 C         141.5787  139.6330  169.1426 C.ar    1  UNL1        0.0341
     13 N         143.3752  138.9455  170.8890 N.pl3   1  UNL1       -0.3181
     14 H         144.0885  139.2731  171.4831 H       1  UNL1        0.1482
     15 C         143.3793  137.5179  170.4285 C.3     1  UNL1        0.0881
     16 C         144.2961  136.5234  171.0767 C.3     1  UNL1        0.0196
     17 C         145.6813  136.0075  171.3320 C.3     1  UNL1        0.0017
     18 C         144.4990  135.3167  171.9443 C.3     1  UNL1        0.0017
     19 N         139.9535  142.9072  163.4513 N.am    1  UNL1       -0.2778
     20 C         140.0496  141.4169  163.5913 C.2     1  UNL1        0.2511
     21 O         140.6320  140.5951  162.4798 O.2     1  UNL1       -0.2698
     22 H         139.5712  143.4465  164.1808 H       1  UNL1        0.1553
     23 C         140.2046  144.7183  158.4977 C.3     1  UNL1        0.1538
     24 N         140.5553  144.4083  159.9228 N.ar    1  UNL1       -0.2459
     25 C         139.7014  143.6510  160.8963 C.ar    1  UNL1        0.1115
     26 C         140.4399  143.5758  162.1997 C.ar    1  UNL1        0.0936
     27 C         141.7501  144.2866  162.0319 C.ar    1  UNL1        0.1686
     28 N         141.8214  144.8011  160.6247 N.ar    1  UNL1       -0.1632
     29 C         142.8039  144.4536  163.0862 C.2     1  UNL1        0.2635
     30 N         143.9659  145.3714  162.8465 N.am    1  UNL1       -0.3240
     31 O         142.6958  143.7027  164.3803 O.2     1  UNL1       -0.2686
     32 H         144.0368  145.8643  161.9972 H       1  UNL1        0.1453
     33 H         144.6575  145.4810  163.5385 H       1  UNL1        0.1453
@<TRIPOS>BOND
     1    23    24    1
     2    24    25   ar
     3    25    26   ar
     4    26    19    1
     5    19    20   am
     6    20    21    2
     7    20     1    1
     8     1     2   ar
     9     2     3   ar
    10     3     4   ar
    11     4     5   ar
    12     5     7    1
    13     7     8   ar
    14     8     9   ar
    15     9    10   ar
    16    10    11   ar
    17    11    13    1
    18    13    15    1
    19    15    16    1
    20    16    17    1
    21    17    18    1
    22    11    12   ar
    23     5     6   ar
    24    26    27   ar
    25    27    29    1
    26    29    30   am
    27    29    31    2
    28    27    28   ar
    29    28    24   ar
    30     6     1   ar
    31    12     7   ar
    32    18    16    1
    33    19    22    1
    34    13    14    1
    35    30    32    1
    36    30    33    1
@<TRIPOS>MOLECULE
*****
 33 36 0 0 0
SMALL
GASTEIGER

@<TRIPOS>ATOM
      1 C         142.4563  142.6101  164.2251 C.ar    1  UNL1        0.0728
      2 C         143.6744  143.4532  164.4600 C.ar    1  UNL1        0.1034
      3 N         144.2945  143.5113  165.8246 N.ar    1  UNL1       -0.2422
      4 C         143.6965  142.7262  166.9542 C.ar    1  UNL1        0.0988
      5 C         142.4784  141.8831  166.7193 C.ar    1  UNL1        0.0195
      6 C         141.8583  141.8250  165.3547 C.ar    1  UNL1        0.0076
      7 C         141.8804  141.0980  167.8489 C.ar    1  UNL1        0.0058
      8 C         140.4003  141.1376  168.0888 C.ar    1  UNL1        0.0208
      9 C         139.8023  140.3525  169.2184 C.ar    1  UNL1        0.1003
     10 N         140.6844  139.5278  170.1081 N.ar    1  UNL1       -0.2294
     11 C         142.1645  139.4881  169.8682 C.ar    1  UNL1        0.1285
     12 C         142.7625  140.2732  168.7386 C.ar    1  UNL1        0.0341
     13 N         143.0468  138.6634  170.7579 N.pl3   1  UNL1       -0.3181
     14 H         143.3619  139.0303  171.6154 H       1  UNL1        0.1482
     15 C         143.4487  137.2797  170.3411 C.3     1  UNL1        0.0881
     16 C         144.4071  136.4912  171.1836 C.3     1  UNL1        0.0196
     17 C         144.7807  135.2143  171.8763 C.3     1  UNL1        0.0017
     18 C         145.6933  136.4025  171.9502 C.3     1  UNL1        0.0017
     19 N         140.3524  142.7071  162.7037 N.am    1  UNL1       -0.2778
     20 C         141.8361  142.5520  162.8605 C.2     1  UNL1        0.2511
     21 O         142.6997  142.3388  161.6527 O.2     1  UNL1       -0.2698
     22 H         139.7856  142.8470  163.4965 H       1  UNL1        0.1553
     23 C         137.8503  140.9589  158.3951 C.3     1  UNL1        0.1538
     24 N         138.5821  141.8454  159.3587 N.ar    1  UNL1       -0.2459
     25 C         139.0510  141.4593  160.7303 C.ar    1  UNL1        0.1115
     26 C         139.7322  142.6490  161.3391 C.ar    1  UNL1        0.0936
     27 C         139.6844  143.7702  160.3439 C.ar    1  UNL1        0.1686
     28 N         138.9736  143.2736  159.1200 N.ar    1  UNL1       -0.1632
     29 C         140.2483  145.1465  160.5386 C.2     1  UNL1        0.2635
     30 N         141.6626  145.4415  160.1349 N.am    1  UNL1       -0.3240
     31 O         139.3981  146.2277  161.1370 O.2     1  UNL1       -0.2686
     32 H         142.2206  144.7319  159.7422 H       1  UNL1        0.1453
     33 H         142.0327  146.3448  160.2627 H       1  UNL1        0.1453
@<TRIPOS>BOND
     1    23    24    1
     2    24    25   ar
     3    25    26   ar
     4    26    19    1
     5    19    20   am
     6    20    21    2
     7    20     1    1
     8     1     2   ar
     9     2     3   ar
    10     3     4   ar
    11     4     5   ar
    12     5     7    1
    13     7     8   ar
    14     8     9   ar
    15     9    10   ar
    16    10    11   ar
    17    11    13    1
    18    13    15    1
    19    15    16    1
    20    16    17    1
    21    17    18    1
    22    11    12   ar
    23     5     6   ar
    24    26    27   ar
    25    27    29    1
    26    29    30   am
    27    29    31    2
    28    27    28   ar
    29    28    24   ar
    30     6     1   ar
    31    12     7   ar
    32    18    16    1
    33    19    22    1
    34    13    14    1
    35    30    32    1
    36    30    33    1
@<TRIPOS>MOLECULE
*****
 33 36 0 0 0
SMALL
GASTEIGER

@<TRIPOS>ATOM
      1 C         142.4420  139.5971  163.7756 C.ar    1  UNL1        0.0728
      2 C         143.1270  138.4451  163.1020 C.ar    1  UNL1        0.1034
      3 N         143.5808  138.5711  161.6779 N.ar    1  UNL1       -0.2422
      4 C         143.3497  139.8491  160.9274 C.ar    1  UNL1        0.0988
      5 C         142.6647  141.0010  161.6009 C.ar    1  UNL1        0.0195
      6 C         142.2109  140.8750  163.0250 C.ar    1  UNL1        0.0076
      7 C         142.4335  142.2790  160.8503 C.ar    1  UNL1        0.0058
      8 C         142.9059  142.4123  159.4329 C.ar    1  UNL1        0.0208
      9 C         142.6748  143.6903  158.6824 C.ar    1  UNL1        0.1003
     10 N         141.9712  144.8349  159.3492 N.ar    1  UNL1       -0.2294
     11 C         141.4987  144.7016  160.7665 C.ar    1  UNL1        0.1285
     12 C         141.7299  143.4237  161.5171 C.ar    1  UNL1        0.0341
     13 N         140.7951  145.8463  161.4334 N.pl3   1  UNL1       -0.3181
     14 H         141.2192  146.7342  161.4641 H       1  UNL1        0.1482
     15 C         139.4452  145.6381  162.0535 C.3     1  UNL1        0.0881
     16 C         139.3335  145.0324  163.4211 C.3     1  UNL1        0.0196
     17 C         138.4889  144.5440  164.5606 C.3     1  UNL1        0.0017
     18 C         139.9844  144.4715  164.6506 C.3     1  UNL1        0.0017
     19 N         140.9880  140.4404  165.7567 N.am    1  UNL1       -0.2778
     20 C         141.9882  139.4711  165.1998 C.2     1  UNL1        0.2511
     21 O         142.5345  138.3759  166.0669 O.2     1  UNL1       -0.2698
     22 H         140.6294  141.1592  165.1875 H       1  UNL1        0.1553
     23 C         140.8093  140.8053  171.0213 C.3     1  UNL1        0.1538
     24 N         140.4520  140.4822  169.6008 N.ar    1  UNL1       -0.2459
     25 C         141.2645  140.8254  168.3873 C.ar    1  UNL1        0.1115
     26 C         140.5342  140.3144  167.1809 C.ar    1  UNL1        0.0936
     27 C         139.2705  139.6554  167.6485 C.ar    1  UNL1        0.1686
     28 N         139.2197  139.7591  169.1441 N.ar    1  UNL1       -0.1632
     29 C         138.2387  139.0067  166.7741 C.2     1  UNL1        0.2635
     30 N         137.3105  137.9769  167.3468 N.am    1  UNL1       -0.3240
     31 O         138.1351  139.3878  165.3271 O.2     1  UNL1       -0.2686
     32 H         137.3785  137.7268  168.2966 H       1  UNL1        0.1453
     33 H         136.6333  137.5511  166.7729 H       1  UNL1        0.1453
@<TRIPOS>BOND
     1    23    24    1
     2    24    25   ar
     3    25    26   ar
     4    26    19    1
     5    19    20   am
     6    20    21    2
     7    20     1    1
     8     1     2   ar
     9     2     3   ar
    10     3     4   ar
    11     4     5   ar
    12     5     7    1
    13     7     8   ar
    14     8     9   ar
    15     9    10   ar
    16    10    11   ar
    17    11    13    1
    18    13    15    1
    19    15    16    1
    20    16    17    1
    21    17    18    1
    22    11    12   ar
    23     5     6   ar
    24    26    27   ar
    25    27    29    1
    26    29    30   am
    27    29    31    2
    28    27    28   ar
    29    28    24   ar
    30     6     1   ar
    31    12     7   ar
    32    18    16    1
    33    19    22    1
    34    13    14    1
    35    30    32    1
    36    30    33    1
@<TRIPOS>MOLECULE
*****
 33 36 0 0 0
SMALL
GASTEIGER

@<TRIPOS>ATOM
      1 C         138.9262  141.0828  164.8088 C.ar    1  UNL1        0.0728
      2 C         137.9923  139.9286  165.0220 C.ar    1  UNL1        0.1034
      3 N         138.0667  139.1276  166.2880 N.ar    1  UNL1       -0.2422
      4 C         139.0751  139.4808  167.3408 C.ar    1  UNL1        0.0988
      5 C         140.0091  140.6350  167.1276 C.ar    1  UNL1        0.0195
      6 C         139.9346  141.4360  165.8616 C.ar    1  UNL1        0.0076
      7 C         141.0175  140.9882  168.1804 C.ar    1  UNL1        0.0058
      8 C         141.3246  142.4271  168.4721 C.ar    1  UNL1        0.0208
      9 C         142.3331  142.7803  169.5249 C.ar    1  UNL1        0.1003
     10 N         143.0343  141.6945  170.2860 N.ar    1  UNL1       -0.2294
     11 C         142.7272  140.2556  169.9943 C.ar    1  UNL1        0.1285
     12 C         141.7188  139.9024  168.9415 C.ar    1  UNL1        0.0341
     13 N         143.4285  139.1698  170.7554 N.pl3   1  UNL1       -0.3181
     14 H         144.0965  139.4014  171.4405 H       1  UNL1        0.1482
     15 C         143.1120  137.7311  170.4727 C.3     1  UNL1        0.0881
     16 C         144.0269  136.6505  170.9679 C.3     1  UNL1        0.0196
     17 C         144.4092  135.6541  172.0220 C.3     1  UNL1        0.0017
     18 C         145.2291  135.7753  170.7718 C.3     1  UNL1        0.0017
     19 N         139.7947  141.5911  162.4135 N.am    1  UNL1       -0.2778
     20 C         138.8518  141.8839  163.5428 C.2     1  UNL1        0.2511
     21 O         137.8345  142.9776  163.4060 O.2     1  UNL1       -0.2698
     22 H         140.4624  140.8733  162.5033 H       1  UNL1        0.1553
     23 C         140.4710  145.4326  158.8544 C.3     1  UNL1        0.1538
     24 N         140.0312  144.1580  159.5116 N.ar    1  UNL1       -0.2459
     25 C         140.3648  143.7255  160.9087 C.ar    1  UNL1        0.1115
     26 C         139.7203  142.3922  161.1475 C.ar    1  UNL1        0.0936
     27 C         138.9884  142.0007  159.8981 C.ar    1  UNL1        0.1686
     28 N         139.1805  143.0919  158.8870 N.ar    1  UNL1       -0.1632
     29 C         138.2023  140.7393  159.6954 C.2     1  UNL1        0.2635
     30 N         138.0479  140.1649  158.3183 N.am    1  UNL1       -0.3240
     31 O         137.5707  140.0523  160.8697 O.2     1  UNL1       -0.2686
     32 H         138.4624  140.6159  157.5476 H       1  UNL1        0.1453
     33 H         137.5320  139.3371  158.1853 H       1  UNL1        0.1453
@<TRIPOS>BOND
     1    23    24    1
     2    24    25   ar
     3    25    26   ar
     4    26    19    1
     5    19    20   am
     6    20    21    2
     7    20     1    1
     8     1     2   ar
     9     2     3   ar
    10     3     4   ar
    11     4     5   ar
    12     5     7    1
    13     7     8   ar
    14     8     9   ar
    15     9    10   ar
    16    10    11   ar
    17    11    13    1
    18    13    15    1
    19    15    16    1
    20    16    17    1
    21    17    18    1
    22    11    12   ar
    23     5     6   ar
    24    26    27   ar
    25    27    29    1
    26    29    30   am
    27    29    31    2
    28    27    28   ar
    29    28    24   ar
    30     6     1   ar
    31    12     7   ar
    32    18    16    1
    33    19    22    1
    34    13    14    1
    35    30    32    1
    36    30    33    1
@<TRIPOS>MOLECULE
*****
 33 36 0 0 0
SMALL
GASTEIGER

@<TRIPOS>ATOM
      1 C         140.2870  139.2845  164.9195 C.ar    1  UNL1        0.0728
      2 C         139.6698  137.9226  164.8012 C.ar    1  UNL1        0.1034
      3 N         138.8523  137.5720  163.5934 N.ar    1  UNL1       -0.2422
      4 C         138.6520  138.5834  162.5039 C.ar    1  UNL1        0.0988
      5 C         139.2693  139.9453  162.6222 C.ar    1  UNL1        0.0195
      6 C         140.0868  140.2959  163.8300 C.ar    1  UNL1        0.0076
      7 C         139.0690  140.9567  161.5327 C.ar    1  UNL1        0.0058
      8 C         138.5002  140.5328  160.2111 C.ar    1  UNL1        0.0208
      9 C         138.3000  141.5442  159.1216 C.ar    1  UNL1        0.1003
     10 N         138.6686  142.9795  159.3537 N.ar    1  UNL1       -0.2294
     11 C         139.2374  143.4034  160.6753 C.ar    1  UNL1        0.1285
     12 C         139.4376  142.3920  161.7648 C.ar    1  UNL1        0.0341
     13 N         139.6060  144.8388  160.9074 N.pl3   1  UNL1       -0.3181
     14 H         139.8482  145.4142  160.1462 H       1  UNL1        0.1482
     15 C         139.6057  145.3975  162.2995 C.3     1  UNL1        0.0881
     16 C         140.7373  145.0852  163.2333 C.3     1  UNL1        0.0196
     17 C         141.3105  144.2656  164.3512 C.3     1  UNL1        0.0017
     18 C         142.1240  145.3637  163.7327 C.3     1  UNL1        0.0017
     19 N         140.7224  140.8114  166.9760 N.am    1  UNL1       -0.2778
     20 C         141.1046  139.6351  166.1273 C.2     1  UNL1        0.2511
     21 O         142.3043  138.8095  166.4863 O.2     1  UNL1       -0.2698
     22 H         139.9350  141.3533  166.7403 H       1  UNL1        0.1553
     23 C         144.5476  142.7377  170.0644 C.3     1  UNL1        0.1538
     24 N         143.2982  142.0475  169.6033 N.ar    1  UNL1       -0.2459
     25 C         142.8298  141.9278  168.1833 C.ar    1  UNL1        0.1115
     26 C         141.5400  141.1620  168.1838 C.ar    1  UNL1        0.0936
     27 C         141.2112  140.8084  169.6040 C.ar    1  UNL1        0.1686
     28 N         142.2979  141.3557  170.4813 N.ar    1  UNL1       -0.1632
     29 C         140.0073  140.0422  170.0657 C.2     1  UNL1        0.2635
     30 N         139.9668  139.4737  171.4532 N.am    1  UNL1       -0.3240
     31 O         138.8437  139.8443  169.1399 O.2     1  UNL1       -0.2686
     32 H         140.7304  139.6036  172.0609 H       1  UNL1        0.1453
     33 H         139.1765  138.9708  171.7563 H       1  UNL1        0.1453
@<TRIPOS>BOND
     1    23    24    1
     2    24    25   ar
     3    25    26   ar
     4    26    19    1
     5    19    20   am
     6    20    21    2
     7    20     1    1
     8     1     2   ar
     9     2     3   ar
    10     3     4   ar
    11     4     5   ar
    12     5     7    1
    13     7     8   ar
    14     8     9   ar
    15     9    10   ar
    16    10    11   ar
    17    11    13    1
    18    13    15    1
    19    15    16    1
    20    16    17    1
    21    17    18    1
    22    11    12   ar
    23     5     6   ar
    24    26    27   ar
    25    27    29    1
    26    29    30   am
    27    29    31    2
    28    27    28   ar
    29    28    24   ar
    30     6     1   ar
    31    12     7   ar
    32    18    16    1
    33    19    22    1
    34    13    14    1
    35    30    32    1
    36    30    33    1
@<TRIPOS>MOLECULE
*****
 33 36 0 0 0
SMALL
GASTEIGER

@<TRIPOS>ATOM
      1 C         138.8794  141.0144  162.0430 C.ar    1  UNL1        0.0728
      2 C         138.1104  139.7909  161.6410 C.ar    1  UNL1        0.1034
      3 N         138.0887  138.5900  162.5395 N.ar    1  UNL1       -0.2422
      4 C         138.8359  138.6126  163.8399 C.ar    1  UNL1        0.0988
      5 C         139.6049  139.8361  164.2419 C.ar    1  UNL1        0.0195
      6 C         139.6267  141.0370  163.3434 C.ar    1  UNL1        0.0076
      7 C         140.3522  139.8588  165.5423 C.ar    1  UNL1        0.0058
      8 C         141.8520  139.8796  165.5452 C.ar    1  UNL1        0.0208
      9 C         142.5992  139.9022  166.8457 C.ar    1  UNL1        0.1003
     10 N         141.8467  139.9040  168.1432 N.ar    1  UNL1       -0.2294
     11 C         140.3468  139.8832  168.1403 C.ar    1  UNL1        0.1285
     12 C         139.5996  139.8606  166.8398 C.ar    1  UNL1        0.0341
     13 N         139.5942  139.8850  169.4378 N.pl3   1  UNL1       -0.3181
     14 H         139.3052  139.0343  169.8405 H       1  UNL1        0.1482
     15 C         139.2818  141.1829  170.1218 C.3     1  UNL1        0.0881
     16 C         140.1856  142.3654  169.9356 C.3     1  UNL1        0.0196
     17 C         140.3923  143.7875  169.5054 C.3     1  UNL1        0.0017
     18 C         141.5444  142.9915  170.0431 C.3     1  UNL1        0.0017
     19 N         139.9980  142.3763  160.1340 N.am    1  UNL1       -0.2778
     20 C         138.9012  142.2154  161.1445 C.2     1  UNL1        0.2511
     21 O         137.8262  143.2554  161.2565 O.2     1  UNL1       -0.2698
     22 H         140.7036  141.6936  160.0604 H       1  UNL1        0.1553
     23 C         139.5993  145.4666  155.8711 C.3     1  UNL1        0.1538
     24 N         139.8365  144.9977  157.2760 N.ar    1  UNL1       -0.2459
     25 C         139.6818  143.5912  157.7741 C.ar    1  UNL1        0.1115
     26 C         140.0198  143.5772  159.2355 C.ar    1  UNL1        0.0936
     27 C         140.3833  144.9750  159.6406 C.ar    1  UNL1        0.1686
     28 N         140.2700  145.8529  158.4296 N.ar    1  UNL1       -0.1632
     29 C         140.7888  145.4172  161.0153 C.2     1  UNL1        0.2635
     30 N         142.1456  145.0622  161.5476 N.am    1  UNL1       -0.3240
     31 O         139.8377  146.2143  161.8579 O.2     1  UNL1       -0.2686
     32 H         142.7699  144.5391  160.9946 H       1  UNL1        0.1453
     33 H         142.4118  145.3524  162.4499 H       1  UNL1        0.1453
@<TRIPOS>BOND
     1    23    24    1
     2    24    25   ar
     3    25    26   ar
     4    26    19    1
     5    19    20   am
     6    20    21    2
     7    20     1    1
     8     1     2   ar
     9     2     3   ar
    10     3     4   ar
    11     4     5   ar
    12     5     7    1
    13     7     8   ar
    14     8     9   ar
    15     9    10   ar
    16    10    11   ar
    17    11    13    1
    18    13    15    1
    19    15    16    1
    20    16    17    1
    21    17    18    1
    22    11    12   ar
    23     5     6   ar
    24    26    27   ar
    25    27    29    1
    26    29    30   am
    27    29    31    2
    28    27    28   ar
    29    28    24   ar
    30     6     1   ar
    31    12     7   ar
    32    18    16    1
    33    19    22    1
    34    13    14    1
    35    30    32    1
    36    30    33    1
@<TRIPOS>MOLECULE
*****
 33 36 0 0 0
SMALL
GASTEIGER

@<TRIPOS>ATOM
      1 C         142.9751  141.6245  163.2879 C.ar    1  UNL1        0.0728
      2 C         144.2990  140.9898  163.5952 C.ar    1  UNL1        0.1034
      3 N         144.3998  139.9477  164.6693 N.ar    1  UNL1       -0.2422
      4 C         143.1767  139.5402  165.4361 C.ar    1  UNL1        0.0988
      5 C         141.8528  140.1748  165.1288 C.ar    1  UNL1        0.0195
      6 C         141.7520  141.2170  164.0547 C.ar    1  UNL1        0.0076
      7 C         140.6297  139.7673  165.8956 C.ar    1  UNL1        0.0058
      8 C         139.5705  138.9377  165.2325 C.ar    1  UNL1        0.0208
      9 C         138.3475  138.5302  165.9993 C.ar    1  UNL1        0.1003
     10 N         138.1835  138.9524  167.4293 N.ar    1  UNL1       -0.2294
     11 C         139.2427  139.7820  168.0924 C.ar    1  UNL1        0.1285
     12 C         140.4658  140.1895  167.3256 C.ar    1  UNL1        0.0341
     13 N         139.0788  140.2041  169.5225 N.pl3   1  UNL1       -0.3181
     14 H         138.2002  140.1295  169.9602 H       1  UNL1        0.1482
     15 C         140.2538  140.7400  170.2856 C.3     1  UNL1        0.0881
     16 C         140.7110  142.1514  170.0648 C.3     1  UNL1        0.0196
     17 C         141.8212  143.1488  169.9147 C.3     1  UNL1        0.0017
     18 C         140.3927  143.5987  169.8325 C.3     1  UNL1        0.0017
     19 N         141.7229  142.6441  161.2526 N.am    1  UNL1       -0.2778
     20 C         142.8742  142.6667  162.2137 C.2     1  UNL1        0.2511
     21 O         143.9248  143.7314  162.1008 O.2     1  UNL1       -0.2698
     22 H         141.0334  141.9453  161.3268 H       1  UNL1        0.1553
     23 C         142.2408  145.1770  156.6485 C.3     1  UNL1        0.1538
     24 N         141.8601  144.8505  158.0622 N.ar    1  UNL1       -0.2459
     25 C         142.1991  143.5877  158.7974 C.ar    1  UNL1        0.1115
     26 C         141.6220  143.6863  160.1785 C.ar    1  UNL1        0.0936
     27 C         140.9264  145.0100  160.2968 C.ar    1  UNL1        0.1686
     28 N         141.0735  145.7295  158.9889 N.ar    1  UNL1       -0.1632
     29 C         140.2096  145.5239  161.5101 C.2     1  UNL1        0.2635
     30 N         139.1238  146.5482  161.3620 N.am    1  UNL1       -0.3240
     31 O         140.5784  145.0135  162.8715 O.2     1  UNL1       -0.2686
     32 H         138.8816  146.8832  160.4684 H       1  UNL1        0.1453
     33 H         138.6533  146.8855  162.1583 H       1  UNL1        0.1453
@<TRIPOS>BOND
     1    23    24    1
     2    24    25   ar
     3    25    26   ar
     4    26    19    1
     5    19    20   am
     6    20    21    2
     7    20     1    1
     8     1     2   ar
     9     2     3   ar
    10     3     4   ar
    11     4     5   ar
    12     5     7    1
    13     7     8   ar
    14     8     9   ar
    15     9    10   ar
    16    10    11   ar
    17    11    13    1
    18    13    15    1
    19    15    16    1
    20    16    17    1
    21    17    18    1
    22    11    12   ar
    23     5     6   ar
    24    26    27   ar
    25    27    29    1
    26    29    30   am
    27    29    31    2
    28    27    28   ar
    29    28    24   ar
    30     6     1   ar
    31    12     7   ar
    32    18    16    1
    33    19    22    1
    34    13    14    1
    35    30    32    1
    36    30    33    1
@<TRIPOS>MOLECULE
*****
 33 36 0 0 0
SMALL
GASTEIGER

@<TRIPOS>ATOM
      1 C         142.9116  141.1443  164.4946 C.ar    1  UNL1        0.0728
      2 C         144.1475  140.3090  164.3381 C.ar    1  UNL1        0.1034
      3 N         144.9290  140.3584  163.0587 N.ar    1  UNL1       -0.2422
      4 C         144.4745  141.2431  161.9359 C.ar    1  UNL1        0.0988
      5 C         143.2386  142.0785  162.0925 C.ar    1  UNL1        0.0195
      6 C         142.4571  142.0291  163.3718 C.ar    1  UNL1        0.0076
      7 C         142.7841  142.9632  160.9697 C.ar    1  UNL1        0.0058
      8 C         143.4672  142.8932  159.6361 C.ar    1  UNL1        0.0208
      9 C         143.0127  143.7780  158.5133 C.ar    1  UNL1        0.1003
     10 N         141.8751  144.7327  158.7241 N.ar    1  UNL1       -0.2294
     11 C         141.1921  144.8026  160.0577 C.ar    1  UNL1        0.1285
     12 C         141.6465  143.9179  161.1805 C.ar    1  UNL1        0.0341
     13 N         140.0544  145.7574  160.2685 N.pl3   1  UNL1       -0.3181
     14 H         139.5288  146.0745  159.4988 H       1  UNL1        0.1482
     15 C         139.7176  146.2289  161.6521 C.3     1  UNL1        0.0881
     16 C         139.0802  145.2877  162.6308 C.3     1  UNL1        0.0196
     17 C         138.9924  144.7162  164.0148 C.3     1  UNL1        0.0017
     18 C         138.0641  144.2291  162.9419 C.3     1  UNL1        0.0017
     19 N         142.7222  141.6478  167.0365 N.am    1  UNL1       -0.2778
     20 C         142.1300  141.0949  165.7741 C.2     1  UNL1        0.2511
     21 O         140.7563  140.4927  165.7910 O.2     1  UNL1       -0.2698
     22 H         143.6238  142.0430  167.0253 H       1  UNL1        0.1553
     23 C         139.5136  142.9723  171.0154 C.3     1  UNL1        0.1538
     24 N         140.4658  142.2073  170.1447 N.ar    1  UNL1       -0.2459
     25 C         141.0409  142.6774  168.8415 C.ar    1  UNL1        0.1115
     26 C         141.9406  141.5984  168.3159 C.ar    1  UNL1        0.0936
     27 C         141.9216  140.4615  169.2941 C.ar    1  UNL1        0.1686
     28 N         141.0101  140.8377  170.4244 N.ar    1  UNL1       -0.1632
     29 C         142.6808  139.1743  169.1647 C.2     1  UNL1        0.2635
     30 N         142.8911  138.3034  170.3678 N.am    1  UNL1       -0.3240
     31 O         143.2298  138.7580  167.8324 O.2     1  UNL1       -0.2686
     32 H         142.5308  138.5766  171.2423 H       1  UNL1        0.1453
     33 H         143.3894  137.4586  170.2829 H       1  UNL1        0.1453
@<TRIPOS>BOND
     1    23    24    1
     2    24    25   ar
     3    25    26   ar
     4    26    19    1
     5    19    20   am
     6    20    21    2
     7    20     1    1
     8     1     2   ar
     9     2     3   ar
    10     3     4   ar
    11     4     5   ar
    12     5     7    1
    13     7     8   ar
    14     8     9   ar
    15     9    10   ar
    16    10    11   ar
    17    11    13    1
    18    13    15    1
    19    15    16    1
    20    16    17    1
    21    17    18    1
    22    11    12   ar
    23     5     6   ar
    24    26    27   ar
    25    27    29    1
    26    29    30   am
    27    29    31    2
    28    27    28   ar
    29    28    24   ar
    30     6     1   ar
    31    12     7   ar
    32    18    16    1
    33    19    22    1
    34    13    14    1
    35    30    32    1
    36    30    33    1
@<TRIPOS>MOLECULE
*****
 33 36 0 0 0
SMALL
GASTEIGER

@<TRIPOS>ATOM
      1 C         141.1291  140.1051  161.9489 C.ar    1  UNL1        0.0728
      2 C         141.9673  138.9060  161.6178 C.ar    1  UNL1        0.1034
      3 N         142.0563  137.7630  162.5850 N.ar    1  UNL1       -0.2422
      4 C         141.3071  137.8191  163.8833 C.ar    1  UNL1        0.0988
      5 C         140.4690  139.0181  164.2144 C.ar    1  UNL1        0.0195
      6 C         140.3800  140.1611  163.2472 C.ar    1  UNL1        0.0076
      7 C         139.7198  139.0742  165.5127 C.ar    1  UNL1        0.0058
      8 C         138.4469  138.2982  165.6783 C.ar    1  UNL1        0.0208
      9 C         137.6978  138.3542  166.9766 C.ar    1  UNL1        0.1003
     10 N         138.2215  139.1863  168.1094 N.ar    1  UNL1       -0.2294
     11 C         139.4945  139.9623  167.9439 C.ar    1  UNL1        0.1285
     12 C         140.2436  139.9063  166.6455 C.ar    1  UNL1        0.0341
     13 N         140.0183  140.7944  169.0767 N.pl3   1  UNL1       -0.3181
     14 H         139.4640  141.5142  169.4561 H       1  UNL1        0.1482
     15 C         141.3866  140.5299  169.6314 C.3     1  UNL1        0.0881
     16 C         142.3515  141.6628  169.8196 C.3     1  UNL1        0.0196
     17 C         143.7064  142.2660  169.5951 C.3     1  UNL1        0.0017
     18 C         142.6680  143.0217  170.3700 C.3     1  UNL1        0.0017
     19 N         141.7965  142.5159  161.2471 N.am    1  UNL1       -0.2778
     20 C         141.0401  141.2482  160.9816 C.2     1  UNL1        0.2511
     21 O         140.1945  141.1235  159.7490 O.2     1  UNL1       -0.2698
     22 H         142.3515  142.5978  162.0561 H       1  UNL1        0.1553
     23 C         142.2569  145.4444  156.8774 C.3     1  UNL1        0.1538
     24 N         141.9191  145.0050  158.2713 N.ar    1  UNL1       -0.2459
     25 C         142.2192  143.6627  158.8698 C.ar    1  UNL1        0.1115
     26 C         141.7075  143.6590  160.2798 C.ar    1  UNL1        0.0936
     27 C         141.0911  144.9990  160.5528 C.ar    1  UNL1        0.1686
     28 N         141.2219  145.8309  159.3115 N.ar    1  UNL1       -0.1632
     29 C         140.4556  145.4311  161.8409 C.2     1  UNL1        0.2635
     30 N         141.3142  145.8481  162.9980 N.am    1  UNL1       -0.3240
     31 O         138.9614  145.4463  161.9720 O.2     1  UNL1       -0.2686
     32 H         142.2949  145.8382  162.9120 H       1  UNL1        0.1453
     33 H         140.8971  146.1318  163.8435 H       1  UNL1        0.1453
@<TRIPOS>BOND
     1    23    24    1
     2    24    25   ar
     3    25    26   ar
     4    26    19    1
     5    19    20   am
     6    20    21    2
     7    20     1    1
     8     1     2   ar
     9     2     3   ar
    10     3     4   ar
    11     4     5   ar
    12     5     7    1
    13     7     8   ar
    14     8     9   ar
    15     9    10   ar
    16    10    11   ar
    17    11    13    1
    18    13    15    1
    19    15    16    1
    20    16    17    1
    21    17    18    1
    22    11    12   ar
    23     5     6   ar
    24    26    27   ar
    25    27    29    1
    26    29    30   am
    27    29    31    2
    28    27    28   ar
    29    28    24   ar
    30     6     1   ar
    31    12     7   ar
    32    18    16    1
    33    19    22    1
    34    13    14    1
    35    30    32    1
    36    30    33    1
