@<TRIPOS>MOLECULE
*****
 35 38 0 0 0
SMALL
GASTEIGER

@<TRIPOS>ATOM
      1 C         139.2351  138.5125  162.7599 C.3     1  UNL1        0.2722
      2 C         139.5872  138.8949  164.1671 C.2     1  UNL1        0.2701
      3 O         140.5050  138.0247  164.9734 O.2     1  UNL1       -0.2707
      4 N         139.0213  140.1475  164.7678 N.am    1  UNL1       -0.2663
      5 H         138.4188  140.7186  164.2385 H       1  UNL1        0.1564
      6 C         139.3733  140.5299  166.1748 C.ar    1  UNL1        0.1343
      7 C         140.1377  141.7930  166.4398 C.ar    1  UNL1        0.0352
      8 C         140.4897  142.1754  167.8469 C.ar    1  UNL1        0.0147
      9 C         140.0773  141.2947  168.9890 C.ar    1  UNL1        0.0877
     10 C         139.3129  140.0316  168.7240 C.ar    1  UNL1        0.1105
     11 N         138.9609  139.6492  167.3168 N.ar    1  UNL1       -0.2283
     12 C         140.4293  141.6771  170.3960 C.1     1  UNL1        0.1020
     13 N         140.7813  142.0595  171.8031 N.1     1  UNL1       -0.1908
     14 C         138.0109  139.0868  162.1106 C.3     1  UNL1        0.1950
     15 O         137.5358  140.4588  162.4873 O.3     1  UNL1       -0.3519
     16 C         138.4023  141.4918  160.2664 C.3     1  UNL1        0.0320
     17 C         137.9894  141.6521  161.6995 C.3     1  UNL1        0.1156
     18 C         138.0300  143.0055  162.3449 C.3     1  UNL1        0.0320
     19 O         140.1072  137.5559  162.0022 O.3     1  UNL1       -0.4517
     20 C         141.4612  137.9916  161.5259 C.ar    1  UNL1        0.2312
     21 N         142.6561  137.8375  162.4195 N.ar    1  UNL1       -0.1892
     22 C         144.0100  138.2733  161.9431 C.ar    1  UNL1        0.2029
     23 N         144.1691  138.8630  160.5731 N.ar    1  UNL1       -0.2045
     24 C         142.9743  139.0171  159.6795 C.ar    1  UNL1        0.1732
     25 C         141.6203  138.5814  160.1559 C.ar    1  UNL1        0.1099
     26 C         140.6331  138.8551  159.0601 C.ar    1  UNL1        0.1283
     27 N         141.3770  139.4601  157.9066 N.ar    1  UNL1       -0.1606
     28 N         142.8239  139.5602  158.2894 N.ar    1  UNL1       -0.1936
     29 C         143.9268  140.1073  157.4325 C.ar    1  UNL1        0.1759
     30 N         144.4378  139.3108  156.2687 N.ar    1  UNL1       -0.2242
     31 C         145.5407  139.8579  155.4118 C.ar    1  UNL1        0.1006
     32 C         146.1327  141.2016  155.7187 C.ar    1  UNL1        0.0217
     33 C         145.6217  141.9980  156.8826 C.ar    1  UNL1        0.0161
     34 C         144.5188  141.4509  157.7394 C.ar    1  UNL1        0.0935
     35 CL        144.0079  142.2474  158.9033 Cl      1  UNL1       -0.0790
@<TRIPOS>BOND
     1    16    17    1
     2    17    18    1
     3    17    15    1
     4    15    14    1
     5     1    14    1
     6     1    19    1
     7    19    20    1
     8    20    21   ar
     9    21    22   ar
    10    22    23   ar
    11    23    24   ar
    12    24    25   ar
    13    25    26   ar
    14    26    27   ar
    15    27    28   ar
    16    28    29    1
    17    29    30   ar
    18    30    31   ar
    19    31    32   ar
    20    32    33   ar
    21    33    34   ar
    22    34    35    1
    23     1     2    1
    24     2     3    2
    25     2     4   am
    26     4     6    1
    27     6     7   ar
    28     7     8   ar
    29     8     9   ar
    30     9    12    1
    31    12    13    3
    32     9    10   ar
    33    10    11   ar
    34    25    20   ar
    35    34    29   ar
    36    11     6   ar
    37    28    24   ar
    38     4     5    1
@<TRIPOS>MOLECULE
*****
 35 38 0 0 0
SMALL
GASTEIGER

@<TRIPOS>ATOM
      1 C         142.4376  138.1023  163.0453 C.3     1  UNL1        0.2722
      2 C         142.2636  138.6029  164.4487 C.2     1  UNL1        0.2701
      3 O         143.1379  138.0748  165.5471 O.2     1  UNL1       -0.2707
      4 N         141.2151  139.6314  164.7534 N.am    1  UNL1       -0.2663
      5 H         140.6413  139.9780  164.0324 H       1  UNL1        0.1564
      6 C         141.0411  140.1320  166.1566 C.ar    1  UNL1        0.1343
      7 C         139.8229  139.7492  166.9438 C.ar    1  UNL1        0.0352
      8 C         139.6488  140.2497  168.3470 C.ar    1  UNL1        0.0147
      9 C         140.6929  141.1331  168.9632 C.ar    1  UNL1        0.0877
     10 C         141.9111  141.5159  168.1760 C.ar    1  UNL1        0.1105
     11 N         142.0851  141.0153  166.7727 N.ar    1  UNL1       -0.2283
     12 C         140.5188  141.6337  170.3664 C.1     1  UNL1        0.1020
     13 N         140.3447  142.1343  171.7697 N.1     1  UNL1       -0.1908
     14 C         143.7101  138.3816  162.3018 C.3     1  UNL1        0.1950
     15 O         143.9313  139.7249  161.6720 O.3     1  UNL1       -0.3519
     16 C         145.2440  140.4961  163.7772 C.3     1  UNL1        0.0320
     17 C         144.6852  140.7871  162.4159 C.3     1  UNL1        0.1156
     18 C         144.8803  142.1401  161.7985 C.3     1  UNL1        0.0320
     19 O         141.3392  137.3225  162.3856 O.3     1  UNL1       -0.4517
     20 C         140.1503  138.0373  161.8149 C.ar    1  UNL1        0.2312
     21 N         138.9066  138.1994  162.6375 N.ar    1  UNL1       -0.1892
     22 C         137.7178  138.9142  162.0668 C.ar    1  UNL1        0.2029
     23 N         137.7727  139.4669  160.6734 N.ar    1  UNL1       -0.2045
     24 C         139.0164  139.3048  159.8508 C.ar    1  UNL1        0.1732
     25 C         140.2052  138.5900  160.4215 C.ar    1  UNL1        0.1099
     26 C         141.2857  138.5835  159.3810 C.ar    1  UNL1        0.1283
     27 N         140.7647  139.2943  158.1673 N.ar    1  UNL1       -0.1606
     28 N         139.3622  139.7401  158.4576 N.ar    1  UNL1       -0.1936
     29 C         138.4632  140.4896  157.5195 C.ar    1  UNL1        0.1759
     30 N         137.8097  139.7739  156.3746 N.ar    1  UNL1       -0.2242
     31 C         136.9107  140.5234  155.4365 C.ar    1  UNL1        0.1006
     32 C         136.6653  141.9887  155.6432 C.ar    1  UNL1        0.0217
     33 C         137.3188  142.7044  156.7880 C.ar    1  UNL1        0.0161
     34 C         138.2177  141.9549  157.7261 C.ar    1  UNL1        0.0935
     35 CL        138.8712  142.6706  158.8709 Cl      1  UNL1       -0.0790
@<TRIPOS>BOND
     1    16    17    1
     2    17    18    1
     3    17    15    1
     4    15    14    1
     5     1    14    1
     6     1    19    1
     7    19    20    1
     8    20    21   ar
     9    21    22   ar
    10    22    23   ar
    11    23    24   ar
    12    24    25   ar
    13    25    26   ar
    14    26    27   ar
    15    27    28   ar
    16    28    29    1
    17    29    30   ar
    18    30    31   ar
    19    31    32   ar
    20    32    33   ar
    21    33    34   ar
    22    34    35    1
    23     1     2    1
    24     2     3    2
    25     2     4   am
    26     4     6    1
    27     6     7   ar
    28     7     8   ar
    29     8     9   ar
    30     9    12    1
    31    12    13    3
    32     9    10   ar
    33    10    11   ar
    34    25    20   ar
    35    34    29   ar
    36    11     6   ar
    37    28    24   ar
    38     4     5    1
@<TRIPOS>MOLECULE
*****
 35 38 0 0 0
SMALL
GASTEIGER

@<TRIPOS>ATOM
      1 C         144.2286  143.1029  162.9625 C.3     1  UNL1        0.2722
      2 C         143.7957  143.0778  164.3985 C.2     1  UNL1        0.2701
      3 O         144.5446  143.8792  165.4217 O.2     1  UNL1       -0.2707
      4 N         142.6140  142.2513  164.8113 N.am    1  UNL1       -0.2663
      5 H         142.1225  141.7254  164.1397 H       1  UNL1        0.1564
      6 C         142.1811  142.2262  166.2472 C.ar    1  UNL1        0.1343
      7 C         140.8840  142.8625  166.6508 C.ar    1  UNL1        0.0352
      8 C         140.4511  142.8374  168.0867 C.ar    1  UNL1        0.0147
      9 C         141.3153  142.1760  169.1191 C.ar    1  UNL1        0.0877
     10 C         142.6123  141.5397  168.7156 C.ar    1  UNL1        0.1105
     11 N         143.0452  141.5648  167.2796 N.ar    1  UNL1       -0.2283
     12 C         140.8824  142.1509  170.5551 C.1     1  UNL1        0.1020
     13 N         140.4495  142.1258  171.9911 N.1     1  UNL1       -0.1908
     14 C         145.0489  141.9768  162.4067 C.3     1  UNL1        0.1950
     15 O         144.3803  140.7087  161.9651 O.3     1  UNL1       -0.3519
     16 C         143.2276  138.4789  162.6355 C.3     1  UNL1        0.0320
     17 C         144.2058  139.5764  162.9334 C.3     1  UNL1        0.1156
     18 C         145.0094  139.5415  164.1994 C.3     1  UNL1        0.0320
     19 O         143.8412  144.2541  162.0824 O.3     1  UNL1       -0.4517
     20 C         142.4286  144.3829  161.5945 C.ar    1  UNL1        0.2312
     21 N         141.3755  144.9637  162.4909 N.ar    1  UNL1       -0.1892
     22 C         139.9630  145.0925  162.0029 C.ar    1  UNL1        0.2029
     23 N         139.6035  144.6404  160.6186 N.ar    1  UNL1       -0.2045
     24 C         140.6566  144.0596  159.7222 C.ar    1  UNL1        0.1732
     25 C         142.0691  143.9308  160.2101 C.ar    1  UNL1        0.1099
     26 C         142.8866  143.3238  159.1085 C.ar    1  UNL1        0.1283
     27 N         141.9793  143.0775  157.9398 N.ar    1  UNL1       -0.1606
     28 N         140.6011  143.5322  158.3190 N.ar    1  UNL1       -0.1936
     29 C         139.3814  143.4704  157.4481 C.ar    1  UNL1        0.1759
     30 N         139.1826  144.4863  156.3626 N.ar    1  UNL1       -0.2242
     31 C         137.9630  144.4245  155.4916 C.ar    1  UNL1        0.1006
     32 C         136.9420  143.3467  155.7061 C.ar    1  UNL1        0.0217
     33 C         137.1408  142.3308  156.7916 C.ar    1  UNL1        0.0161
     34 C         138.3604  142.3926  157.6626 C.ar    1  UNL1        0.0935
     35 CL        138.5591  141.3766  158.7481 Cl      1  UNL1       -0.0790
@<TRIPOS>BOND
     1    16    17    1
     2    17    18    1
     3    17    15    1
     4    15    14    1
     5     1    14    1
     6     1    19    1
     7    19    20    1
     8    20    21   ar
     9    21    22   ar
    10    22    23   ar
    11    23    24   ar
    12    24    25   ar
    13    25    26   ar
    14    26    27   ar
    15    27    28   ar
    16    28    29    1
    17    29    30   ar
    18    30    31   ar
    19    31    32   ar
    20    32    33   ar
    21    33    34   ar
    22    34    35    1
    23     1     2    1
    24     2     3    2
    25     2     4   am
    26     4     6    1
    27     6     7   ar
    28     7     8   ar
    29     8     9   ar
    30     9    12    1
    31    12    13    3
    32     9    10   ar
    33    10    11   ar
    34    25    20   ar
    35    34    29   ar
    36    11     6   ar
    37    28    24   ar
    38     4     5    1
@<TRIPOS>MOLECULE
*****
 35 38 0 0 0
SMALL
GASTEIGER

@<TRIPOS>ATOM
      1 C         144.5181  142.3186  162.9503 C.3     1  UNL1        0.2722
      2 C         144.0243  142.4311  164.3622 C.2     1  UNL1        0.2701
      3 O         144.7234  143.3378  165.3313 O.2     1  UNL1       -0.2707
      4 N         142.8313  141.6369  164.8051 N.am    1  UNL1       -0.2663
      5 H         142.3725  141.0418  164.1690 H       1  UNL1        0.1564
      6 C         142.3375  141.7493  166.2169 C.ar    1  UNL1        0.1343
      7 C         141.1389  142.5962  166.5271 C.ar    1  UNL1        0.0352
      8 C         140.6451  142.7086  167.9389 C.ar    1  UNL1        0.0147
      9 C         141.3499  141.9742  169.0408 C.ar    1  UNL1        0.0877
     10 C         142.5485  141.1274  168.7307 C.ar    1  UNL1        0.1105
     11 N         143.0423  141.0150  167.3187 N.ar    1  UNL1       -0.2283
     12 C         140.8561  142.0867  170.4527 C.1     1  UNL1        0.1020
     13 N         140.3622  142.1991  171.8646 N.1     1  UNL1       -0.1908
     14 C         144.4398  143.5019  162.0318 C.3     1  UNL1        0.1950
     15 O         143.7118  144.7401  162.4642 O.3     1  UNL1       -0.3519
     16 C         141.4625  145.0810  163.7191 C.3     1  UNL1        0.0320
     17 C         142.2120  144.7691  162.4577 C.3     1  UNL1        0.1156
     18 C         141.4618  144.4862  161.1900 C.3     1  UNL1        0.0320
     19 O         145.0901  141.0228  162.4568 O.3     1  UNL1       -0.4517
     20 C         144.1780  139.9436  161.9532 C.ar    1  UNL1        0.2312
     21 N         143.5143  139.0101  162.9218 N.ar    1  UNL1       -0.1892
     22 C         142.6022  137.9311  162.4182 C.ar    1  UNL1        0.2029
     23 N         142.3537  137.7856  160.9461 N.ar    1  UNL1       -0.2045
     24 C         143.0173  138.7191  159.9776 C.ar    1  UNL1        0.1732
     25 C         143.9294  139.7982  160.4812 C.ar    1  UNL1        0.1099
     26 C         144.4393  140.5644  159.2966 C.ar    1  UNL1        0.1283
     27 N         143.8422  139.9589  158.0610 N.ar    1  UNL1       -0.1606
     28 N         142.9634  138.8184  158.4818 N.ar    1  UNL1       -0.1936
     29 C         142.1699  137.9328  157.5675 C.ar    1  UNL1        0.1759
     30 N         142.8103  136.7239  156.9523 N.ar    1  UNL1       -0.2242
     31 C         142.0168  135.8383  156.0379 C.ar    1  UNL1        0.1006
     32 C         140.5829  136.1615  155.7388 C.ar    1  UNL1        0.0217
     33 C         139.9426  137.3704  156.3540 C.ar    1  UNL1        0.0161
     34 C         140.7360  138.2560  157.2683 C.ar    1  UNL1        0.0935
     35 CL        140.0956  139.4649  157.8835 Cl      1  UNL1       -0.0790
@<TRIPOS>BOND
     1    16    17    1
     2    17    18    1
     3    17    15    1
     4    15    14    1
     5     1    14    1
     6     1    19    1
     7    19    20    1
     8    20    21   ar
     9    21    22   ar
    10    22    23   ar
    11    23    24   ar
    12    24    25   ar
    13    25    26   ar
    14    26    27   ar
    15    27    28   ar
    16    28    29    1
    17    29    30   ar
    18    30    31   ar
    19    31    32   ar
    20    32    33   ar
    21    33    34   ar
    22    34    35    1
    23     1     2    1
    24     2     3    2
    25     2     4   am
    26     4     6    1
    27     6     7   ar
    28     7     8   ar
    29     8     9   ar
    30     9    12    1
    31    12    13    3
    32     9    10   ar
    33    10    11   ar
    34    25    20   ar
    35    34    29   ar
    36    11     6   ar
    37    28    24   ar
    38     4     5    1
@<TRIPOS>MOLECULE
*****
 35 38 0 0 0
SMALL
GASTEIGER

@<TRIPOS>ATOM
      1 C         141.6498  139.5680  162.5651 C.3     1  UNL1        0.2722
      2 C         141.6004  139.8682  164.0339 C.2     1  UNL1        0.2701
      3 O         142.6225  139.2724  164.9560 O.2     1  UNL1       -0.2707
      4 N         140.5288  140.7642  164.5807 N.am    1  UNL1       -0.2663
      5 H         139.8579  141.1552  163.9754 H       1  UNL1        0.1564
      6 C         140.4793  141.0644  166.0494 C.ar    1  UNL1        0.1343
      7 C         140.8905  142.4162  166.5529 C.ar    1  UNL1        0.0352
      8 C         140.8410  142.7165  168.0217 C.ar    1  UNL1        0.0147
      9 C         140.3804  141.6648  168.9871 C.ar    1  UNL1        0.0877
     10 C         139.9692  140.3130  168.4836 C.ar    1  UNL1        0.1105
     11 N         140.0187  140.0128  167.0148 N.ar    1  UNL1       -0.2283
     12 C         140.3309  141.9650  170.4559 C.1     1  UNL1        0.1020
     13 N         140.2815  142.2653  171.9247 N.1     1  UNL1       -0.1908
     14 C         141.5389  138.1512  162.0850 C.3     1  UNL1        0.1950
     15 O         140.2071  137.6037  161.6648 O.3     1  UNL1       -0.3519
     16 C         137.8454  138.6791  161.7921 C.3     1  UNL1        0.0320
     17 C         138.9750  137.9435  162.4501 C.3     1  UNL1        0.1156
     18 C         138.8725  137.5477  163.8933 C.3     1  UNL1        0.0320
     19 O         141.8100  140.6845  161.5764 O.3     1  UNL1       -0.4517
     20 C         140.5986  141.3559  161.0003 C.ar    1  UNL1        0.2312
     21 N         139.9717  142.5150  161.7167 N.ar    1  UNL1       -0.1892
     22 C         138.7603  143.1863  161.1406 C.ar    1  UNL1        0.2029
     23 N         138.1758  142.6984  159.8482 N.ar    1  UNL1       -0.2045
     24 C         138.8028  141.5393  159.1318 C.ar    1  UNL1        0.1732
     25 C         140.0141  140.8680  159.7079 C.ar    1  UNL1        0.1099
     26 C         140.4119  139.7561  158.7829 C.ar    1  UNL1        0.1283
     27 N         139.4463  139.7402  157.6351 N.ar    1  UNL1       -0.1606
     28 N         138.4518  140.8423  157.8508 N.ar    1  UNL1       -0.1936
     29 C         137.3073  141.1869  156.9445 C.ar    1  UNL1        0.1759
     30 N         136.0573  140.3580  156.9665 N.ar    1  UNL1       -0.2242
     31 C         134.9128  140.7025  156.0602 C.ar    1  UNL1        0.1006
     32 C         135.0182  141.8761  155.1320 C.ar    1  UNL1        0.0217
     33 C         136.2681  142.7050  155.1101 C.ar    1  UNL1        0.0161
     34 C         137.4126  142.3604  156.0163 C.ar    1  UNL1        0.0935
     35 CL        138.6625  143.1894  155.9943 Cl      1  UNL1       -0.0790
@<TRIPOS>BOND
     1    16    17    1
     2    17    18    1
     3    17    15    1
     4    15    14    1
     5     1    14    1
     6     1    19    1
     7    19    20    1
     8    20    21   ar
     9    21    22   ar
    10    22    23   ar
    11    23    24   ar
    12    24    25   ar
    13    25    26   ar
    14    26    27   ar
    15    27    28   ar
    16    28    29    1
    17    29    30   ar
    18    30    31   ar
    19    31    32   ar
    20    32    33   ar
    21    33    34   ar
    22    34    35    1
    23     1     2    1
    24     2     3    2
    25     2     4   am
    26     4     6    1
    27     6     7   ar
    28     7     8   ar
    29     8     9   ar
    30     9    12    1
    31    12    13    3
    32     9    10   ar
    33    10    11   ar
    34    25    20   ar
    35    34    29   ar
    36    11     6   ar
    37    28    24   ar
    38     4     5    1
@<TRIPOS>MOLECULE
*****
 35 38 0 0 0
SMALL
GASTEIGER

@<TRIPOS>ATOM
      1 C         139.2089  138.0984  161.4457 C.3     1  UNL1        0.2722
      2 C         139.9525  138.3501  160.1675 C.2     1  UNL1        0.2701
      3 O         139.1962  138.5831  158.8933 O.2     1  UNL1       -0.2707
      4 N         141.4524  138.3687  160.1636 N.am    1  UNL1       -0.2663
      5 H         141.9487  138.2157  160.9999 H       1  UNL1        0.1564
      6 C         142.1960  138.6203  158.8855 C.ar    1  UNL1        0.1343
      7 C         142.8062  139.9656  158.6251 C.ar    1  UNL1        0.0352
      8 C         143.5498  140.2172  157.3470 C.ar    1  UNL1        0.0147
      9 C         143.6832  139.1235  156.3291 C.ar    1  UNL1        0.0877
     10 C         143.0731  137.7781  156.5894 C.ar    1  UNL1        0.1105
     11 N         142.3294  137.5266  157.8677 N.ar    1  UNL1       -0.2283
     12 C         144.4269  139.3751  155.0510 C.1     1  UNL1        0.1020
     13 N         145.1705  139.6268  153.7728 N.1     1  UNL1       -0.1908
     14 C         137.8126  138.6193  161.6161 C.3     1  UNL1        0.1950
     15 O         137.5083  140.0588  161.3245 O.3     1  UNL1       -0.3519
     16 C         137.4244  141.6268  163.3945 C.3     1  UNL1        0.0320
     17 C         138.1257  141.1402  162.1610 C.3     1  UNL1        0.1156
     18 C         139.4441  141.7350  161.7639 C.3     1  UNL1        0.0320
     19 O         139.8617  137.3259  162.5535 O.3     1  UNL1       -0.4517
     20 C         140.6457  138.0469  163.6098 C.ar    1  UNL1        0.2312
     21 N         142.1280  138.2186  163.4573 N.ar    1  UNL1       -0.1892
     22 C         142.9120  138.9394  164.5135 C.ar    1  UNL1        0.2029
     23 N         142.2138  139.4886  165.7222 N.ar    1  UNL1       -0.2045
     24 C         140.7315  139.3170  165.8746 C.ar    1  UNL1        0.1732
     25 C         139.9475  138.5961  164.8184 C.ar    1  UNL1        0.1099
     26 C         138.5078  138.5806  165.2393 C.ar    1  UNL1        0.1283
     27 N         138.4021  139.2919  166.5557 N.ar    1  UNL1       -0.1606
     28 N         139.7764  139.7470  166.9483 N.ar    1  UNL1       -0.1936
     29 C         140.1330  140.5000  168.1956 C.ar    1  UNL1        0.1759
     30 N         140.1929  139.7843  169.5125 N.ar    1  UNL1       -0.2242
     31 C         140.5495  140.5373  170.7598 C.ar    1  UNL1        0.1006
     32 C         140.8463  142.0060  170.6903 C.ar    1  UNL1        0.0217
     33 C         140.7864  142.7216  169.3734 C.ar    1  UNL1        0.0161
     34 C         140.4298  141.9687  168.1261 C.ar    1  UNL1        0.0935
     35 CL        140.3699  142.6844  166.8092 Cl      1  UNL1       -0.0790
@<TRIPOS>BOND
     1    16    17    1
     2    17    18    1
     3    17    15    1
     4    15    14    1
     5     1    14    1
     6     1    19    1
     7    19    20    1
     8    20    21   ar
     9    21    22   ar
    10    22    23   ar
    11    23    24   ar
    12    24    25   ar
    13    25    26   ar
    14    26    27   ar
    15    27    28   ar
    16    28    29    1
    17    29    30   ar
    18    30    31   ar
    19    31    32   ar
    20    32    33   ar
    21    33    34   ar
    22    34    35    1
    23     1     2    1
    24     2     3    2
    25     2     4   am
    26     4     6    1
    27     6     7   ar
    28     7     8   ar
    29     8     9   ar
    30     9    12    1
    31    12    13    3
    32     9    10   ar
    33    10    11   ar
    34    25    20   ar
    35    34    29   ar
    36    11     6   ar
    37    28    24   ar
    38     4     5    1
@<TRIPOS>MOLECULE
*****
 35 38 0 0 0
SMALL
GASTEIGER

@<TRIPOS>ATOM
      1 C         141.6415  139.1614  158.5987 C.3     1  UNL1        0.2722
      2 C         141.6732  137.9099  157.7722 C.2     1  UNL1        0.2701
      3 O         140.4120  137.3922  157.1467 O.2     1  UNL1       -0.2707
      4 N         142.9660  137.1763  157.5713 N.am    1  UNL1       -0.2663
      5 H         143.7937  137.5161  157.9819 H       1  UNL1        0.1564
      6 C         142.9977  135.9249  156.7449 C.ar    1  UNL1        0.1343
      7 C         142.8202  136.0037  155.2575 C.ar    1  UNL1        0.0352
      8 C         142.8518  134.7523  154.4311 C.ar    1  UNL1        0.0147
      9 C         143.0610  133.4221  155.0921 C.ar    1  UNL1        0.0877
     10 C         143.2385  133.3433  156.5795 C.ar    1  UNL1        0.1105
     11 N         143.2068  134.5948  157.4059 N.ar    1  UNL1       -0.2283
     12 C         143.0927  132.1707  154.2657 C.1     1  UNL1        0.1020
     13 N         143.1243  130.9193  153.4392 N.1     1  UNL1       -0.1908
     14 C         142.8672  140.0190  158.7082 C.3     1  UNL1        0.1950
     15 O         144.0990  139.4850  159.3772 O.3     1  UNL1       -0.3519
     16 C         144.1893  140.2996  161.8427 C.3     1  UNL1        0.0320
     17 C         144.0833  139.1831  160.8465 C.3     1  UNL1        0.1156
     18 C         143.9617  137.7649  161.3195 C.3     1  UNL1        0.0320
     19 O         140.3842  139.5551  159.3156 O.3     1  UNL1       -0.4517
     20 C         140.4639  140.2680  160.6331 C.ar    1  UNL1        0.2312
     21 N         140.5197  141.7664  160.6728 N.ar    1  UNL1       -0.1892
     22 C         140.5993  142.4792  161.9902 C.ar    1  UNL1        0.2029
     23 N         140.6232  141.6936  163.2678 N.ar    1  UNL1       -0.2045
     24 C         140.5674  140.1952  163.2280 C.ar    1  UNL1        0.1732
     25 C         140.4878  139.4824  161.9107 C.ar    1  UNL1        0.1099
     26 C         140.4456  138.0079  162.1832 C.ar    1  UNL1        0.1283
     27 N         140.4992  137.8094  163.6690 N.ar    1  UNL1       -0.1606
     28 N         140.5745  139.1613  164.3148 N.ar    1  UNL1       -0.1936
     29 C         140.6446  139.4317  165.7885 C.ar    1  UNL1        0.1759
     30 N         141.9750  139.4806  166.4796 N.ar    1  UNL1       -0.2242
     31 C         142.0451  139.7511  167.9534 C.ar    1  UNL1        0.1006
     32 C         140.7848  139.9726  168.7361 C.ar    1  UNL1        0.0217
     33 C         139.4544  139.9237  168.0449 C.ar    1  UNL1        0.0161
     34 C         139.3843  139.6533  166.5712 C.ar    1  UNL1        0.0935
     35 CL        138.0539  139.6043  165.8801 Cl      1  UNL1       -0.0790
@<TRIPOS>BOND
     1    16    17    1
     2    17    18    1
     3    17    15    1
     4    15    14    1
     5     1    14    1
     6     1    19    1
     7    19    20    1
     8    20    21   ar
     9    21    22   ar
    10    22    23   ar
    11    23    24   ar
    12    24    25   ar
    13    25    26   ar
    14    26    27   ar
    15    27    28   ar
    16    28    29    1
    17    29    30   ar
    18    30    31   ar
    19    31    32   ar
    20    32    33   ar
    21    33    34   ar
    22    34    35    1
    23     1     2    1
    24     2     3    2
    25     2     4   am
    26     4     6    1
    27     6     7   ar
    28     7     8   ar
    29     8     9   ar
    30     9    12    1
    31    12    13    3
    32     9    10   ar
    33    10    11   ar
    34    25    20   ar
    35    34    29   ar
    36    11     6   ar
    37    28    24   ar
    38     4     5    1
@<TRIPOS>MOLECULE
*****
 35 38 0 0 0
SMALL
GASTEIGER

@<TRIPOS>ATOM
      1 C         142.9250  138.6730  163.0872 C.3     1  UNL1        0.2722
      2 C         142.6532  139.0357  164.5171 C.2     1  UNL1        0.2701
      3 O         143.1343  138.1423  165.6219 O.2     1  UNL1       -0.2707
      4 N         141.9004  140.2916  164.8423 N.am    1  UNL1       -0.2663
      5 H         141.5846  140.8780  164.1172 H       1  UNL1        0.1564
      6 C         141.6286  140.6543  166.2721 C.ar    1  UNL1        0.1343
      7 C         140.4373  140.0783  166.9786 C.ar    1  UNL1        0.0352
      8 C         140.1655  140.4410  168.4084 C.ar    1  UNL1        0.0147
      9 C         141.0851  141.3797  169.1320 C.ar    1  UNL1        0.0877
     10 C         142.2764  141.9556  168.4255 C.ar    1  UNL1        0.1105
     11 N         142.5481  141.5929  166.9956 N.ar    1  UNL1       -0.2283
     12 C         140.8133  141.7423  170.5618 C.1     1  UNL1        0.1020
     13 N         140.5415  142.1049  171.9918 N.1     1  UNL1       -0.1908
     14 C         142.0649  137.6581  162.3943 C.3     1  UNL1        0.1950
     15 O         140.9703  136.9626  163.1482 O.3     1  UNL1       -0.3519
     16 C         138.9117  138.0595  162.0040 C.3     1  UNL1        0.0320
     17 C         139.6109  137.5894  163.2450 C.3     1  UNL1        0.1156
     18 C         138.9508  137.7459  164.5827 C.3     1  UNL1        0.0320
     19 O         144.0570  139.3253  162.3502 O.3     1  UNL1       -0.4517
     20 C         143.9280  140.7445  161.8818 C.ar    1  UNL1        0.2312
     21 N         144.5928  141.8502  162.6469 N.ar    1  UNL1       -0.1892
     22 C         144.4638  143.2693  162.1785 C.ar    1  UNL1        0.2029
     23 N         143.6700  143.5828  160.9450 N.ar    1  UNL1       -0.2045
     24 C         143.0052  142.4771  160.1798 C.ar    1  UNL1        0.1732
     25 C         143.1342  141.0580  160.6482 C.ar    1  UNL1        0.1099
     26 C         142.3732  140.1844  159.6955 C.ar    1  UNL1        0.1283
     27 N         141.7738  141.0636  158.6382 N.ar    1  UNL1       -0.1606
     28 N         142.1645  142.4806  158.9376 N.ar    1  UNL1       -0.1936
     29 C         141.7816  143.6889  158.1356 C.ar    1  UNL1        0.1759
     30 N         140.7110  144.6128  158.6357 N.ar    1  UNL1       -0.2242
     31 C         140.3281  145.8211  157.8337 C.ar    1  UNL1        0.1006
     32 C         141.0159  146.1057  156.5314 C.ar    1  UNL1        0.0217
     33 C         142.0865  145.1818  156.0312 C.ar    1  UNL1        0.0161
     34 C         142.4694  143.9735  156.8333 C.ar    1  UNL1        0.0935
     35 CL        143.5401  143.0497  156.3330 Cl      1  UNL1       -0.0790
@<TRIPOS>BOND
     1    16    17    1
     2    17    18    1
     3    17    15    1
     4    15    14    1
     5     1    14    1
     6     1    19    1
     7    19    20    1
     8    20    21   ar
     9    21    22   ar
    10    22    23   ar
    11    23    24   ar
    12    24    25   ar
    13    25    26   ar
    14    26    27   ar
    15    27    28   ar
    16    28    29    1
    17    29    30   ar
    18    30    31   ar
    19    31    32   ar
    20    32    33   ar
    21    33    34   ar
    22    34    35    1
    23     1     2    1
    24     2     3    2
    25     2     4   am
    26     4     6    1
    27     6     7   ar
    28     7     8   ar
    29     8     9   ar
    30     9    12    1
    31    12    13    3
    32     9    10   ar
    33    10    11   ar
    34    25    20   ar
    35    34    29   ar
    36    11     6   ar
    37    28    24   ar
    38     4     5    1
@<TRIPOS>MOLECULE
*****
 35 38 0 0 0
SMALL
GASTEIGER

@<TRIPOS>ATOM
      1 C         138.4685  138.8990  163.1558 C.3     1  UNL1        0.2722
      2 C         138.8384  139.3185  164.5477 C.2     1  UNL1        0.2701
      3 O         138.0892  138.7630  165.7224 O.2     1  UNL1       -0.2707
      4 N         139.9575  140.2934  164.7647 N.am    1  UNL1       -0.2663
      5 H         140.4492  140.6579  163.9936 H       1  UNL1        0.1564
      6 C         140.3274  140.7128  166.1565 C.ar    1  UNL1        0.1343
      7 C         140.1920  142.1489  166.5680 C.ar    1  UNL1        0.0352
      8 C         140.5619  142.5684  167.9598 C.ar    1  UNL1        0.0147
      9 C         141.0673  141.5518  168.9402 C.ar    1  UNL1        0.0877
     10 C         141.2026  140.1157  168.5287 C.ar    1  UNL1        0.1105
     11 N         140.8327  139.6962  167.1368 N.ar    1  UNL1       -0.2283
     12 C         141.4372  141.9712  170.3320 C.1     1  UNL1        0.1020
     13 N         141.8070  142.3907  171.7239 N.1     1  UNL1       -0.1908
     14 C         139.0119  137.6214  162.5881 C.3     1  UNL1        0.1950
     15 O         140.4123  137.1926  162.9121 O.3     1  UNL1       -0.3519
     16 C         141.6054  138.2437  160.8574 C.3     1  UNL1        0.0320
     17 C         141.5780  137.9314  162.3243 C.3     1  UNL1        0.1156
     18 C         142.7160  138.3580  163.2033 C.3     1  UNL1        0.0320
     19 O         137.5551  139.7572  162.3316 O.3     1  UNL1       -0.4517
     20 C         137.9828  141.1379  161.9303 C.ar    1  UNL1        0.2312
     21 N         137.7796  142.2889  162.8704 N.ar    1  UNL1       -0.1892
     22 C         138.2073  143.6695  162.4691 C.ar    1  UNL1        0.2029
     23 N         138.8381  143.8990  161.1276 N.ar    1  UNL1       -0.2045
     24 C         139.0412  142.7479  160.1876 C.ar    1  UNL1        0.1732
     25 C         138.6136  141.3674  160.5889 C.ar    1  UNL1        0.1099
     26 C         138.9393  140.4347  159.4601 C.ar    1  UNL1        0.1283
     27 N         139.5683  141.2389  158.3612 N.ar    1  UNL1       -0.1606
     28 N         139.6313  142.6685  158.8108 N.ar    1  UNL1       -0.1936
     29 C         140.1868  143.8171  158.0221 C.ar    1  UNL1        0.1759
     30 N         139.4171  144.3708  156.8598 N.ar    1  UNL1       -0.2242
     31 C         139.9726  145.5194  156.0711 C.ar    1  UNL1        0.1006
     32 C         141.2979  146.1144  156.4447 C.ar    1  UNL1        0.0217
     33 C         142.0676  145.5608  157.6070 C.ar    1  UNL1        0.0161
     34 C         141.5121  144.4122  158.3957 C.ar    1  UNL1        0.0935
     35 CL        142.2819  143.8586  159.5580 Cl      1  UNL1       -0.0790
@<TRIPOS>BOND
     1    16    17    1
     2    17    18    1
     3    17    15    1
     4    15    14    1
     5     1    14    1
     6     1    19    1
     7    19    20    1
     8    20    21   ar
     9    21    22   ar
    10    22    23   ar
    11    23    24   ar
    12    24    25   ar
    13    25    26   ar
    14    26    27   ar
    15    27    28   ar
    16    28    29    1
    17    29    30   ar
    18    30    31   ar
    19    31    32   ar
    20    32    33   ar
    21    33    34   ar
    22    34    35    1
    23     1     2    1
    24     2     3    2
    25     2     4   am
    26     4     6    1
    27     6     7   ar
    28     7     8   ar
    29     8     9   ar
    30     9    12    1
    31    12    13    3
    32     9    10   ar
    33    10    11   ar
    34    25    20   ar
    35    34    29   ar
    36    11     6   ar
    37    28    24   ar
    38     4     5    1
