@<TRIPOS>MOLECULE
*****
 30 33 0 0 0
SMALL
GASTEIGER

@<TRIPOS>ATOM
      1 N         139.1610  139.5302  161.5463 N.3     1  UNL1       -0.2673
      2 C         140.4662  139.1786  162.1963 C.3     1  UNL1        0.1035
      3 C         140.5784  139.1607  163.6919 C.3     1  UNL1        0.1470
      4 C         140.6906  139.1428  165.1877 C.3     1  UNL1        0.1037
      5 N         139.4975  139.4765  166.0333 N.3     1  UNL1       -0.2647
      6 C         138.1922  139.8282  165.3832 C.3     1  UNL1        0.1037
      7 C         138.0800  139.8461  163.8876 C.3     1  UNL1        0.1470
      8 C         137.9679  139.8640  162.3919 C.3     1  UNL1        0.1035
      9 O         139.3853  139.4944  164.5376 O.3     1  UNL1       -0.3530
     10 C         139.0487  139.5482  160.0505 C.3     1  UNL1        0.0913
     11 C         138.8698  140.8501  159.3274 C.3     1  UNL1        0.1087
     12 N         139.6941  142.0422  159.7140 N.3     1  UNL1       -0.1780
     13 H         140.6688  141.7418  159.7049 H       1  UNL1        0.1488
     14 O         138.0279  142.9528  160.6598 O.2     1  UNL1       -0.1530
     15 S         139.4619  142.7189  161.0324 S.O2    1  UNL1        0.0603
     16 O         140.8959  142.4851  161.4050 O.2     1  UNL1       -0.1530
     17 C         139.2297  143.3956  162.3507 C.ar    1  UNL1        0.1221
     18 C         137.8459  143.4627  162.9259 C.ar    1  UNL1        0.0222
     19 C         137.6138  144.1394  164.2444 C.ar    1  UNL1        0.0310
     20 C         138.7653  144.7490  164.9876 C.ar    1  UNL1        0.1402
     21 F         138.5331  145.4257  166.3059 F       1  UNL1       -0.2042
     22 C         140.1490  144.6819  164.4124 C.ar    1  UNL1        0.0310
     23 C         140.3812  144.0052  163.0940 C.ar    1  UNL1        0.0222
     24 C         139.6097  139.4586  167.5290 C.3     1  UNL1        0.0993
     25 C         139.8178  140.7398  168.2809 C.ar    1  UNL1       -0.0061
     26 C         139.4375  140.8297  169.7291 C.ar    1  UNL1       -0.0029
     27 C         139.6456  142.1108  170.4810 C.ar    1  UNL1       -0.0003
     28 C         140.2339  143.3020  169.7848 C.ar    1  UNL1       -0.0000
     29 C         140.6142  143.2121  168.3366 C.ar    1  UNL1       -0.0003
     30 C         140.4061  141.9310  167.5846 C.ar    1  UNL1       -0.0029
@<TRIPOS>BOND
     1    14    15    2
     2    15    16    2
     3    15    12    1
     4    12    11    1
     5    11    10    1
     6    10     1    1
     7     1     2    1
     8     2     3    1
     9     3     4    1
    10     4     5    1
    11     5    24    1
    12    24    25    1
    13    25    26   ar
    14    26    27   ar
    15    27    28   ar
    16    28    29   ar
    17    29    30   ar
    18     5     6    1
    19     6     7    1
    20     7     8    1
    21     7     9    1
    22    15    17    1
    23    17    18   ar
    24    18    19   ar
    25    19    20   ar
    26    20    21    1
    27    20    22   ar
    28    22    23   ar
    29     8     1    1
    30    23    17   ar
    31     9     3    1
    32    30    25   ar
    33    12    13    1
@<TRIPOS>MOLECULE
*****
 30 33 0 0 0
SMALL
GASTEIGER

@<TRIPOS>ATOM
      1 N         139.7406  144.1880  162.9361 N.3     1  UNL1       -0.2673
      2 C         139.0889  142.8618  162.6787 C.3     1  UNL1        0.1035
      3 C         139.0145  141.8379  163.7724 C.3     1  UNL1        0.1470
      4 C         138.9401  140.8140  164.8661 C.3     1  UNL1        0.1037
      5 N         139.5173  141.1165  166.2172 N.3     1  UNL1       -0.2647
      6 C         140.1690  142.4428  166.4745 C.3     1  UNL1        0.1037
      7 C         140.2434  143.4667  165.3808 C.3     1  UNL1        0.1470
      8 C         140.3178  144.4905  164.2871 C.3     1  UNL1        0.1035
      9 O         139.5917  142.1404  165.1234 O.3     1  UNL1       -0.3530
     10 C         139.8150  145.2120  161.8424 C.3     1  UNL1        0.0913
     11 C         140.6940  144.9737  160.6505 C.3     1  UNL1        0.1087
     12 N         142.1844  144.9301  160.8145 N.3     1  UNL1       -0.1780
     13 H         142.5832  144.9006  159.8761 H       1  UNL1        0.1488
     14 O         142.1098  142.8117  160.7331 O.2     1  UNL1       -0.1530
     15 S         142.8213  143.8158  161.5908 S.O2    1  UNL1        0.0603
     16 O         143.5327  144.8198  162.4485 O.2     1  UNL1       -0.1530
     17 C         143.4581  142.7014  162.3671 C.ar    1  UNL1        0.1221
     18 C         142.6065  141.6185  162.9604 C.ar    1  UNL1        0.0222
     19 C         143.2434  140.5041  163.7367 C.ar    1  UNL1        0.0310
     20 C         144.7318  140.4727  163.9197 C.ar    1  UNL1        0.1402
     21 F         145.3686  139.3584  164.6960 F       1  UNL1       -0.2042
     22 C         145.5834  141.5557  163.3264 C.ar    1  UNL1        0.0310
     23 C         144.9466  142.6700  162.5501 C.ar    1  UNL1        0.0222
     24 C         139.4429  140.0926  167.3108 C.3     1  UNL1        0.0993
     25 C         140.3476  140.2010  168.5025 C.ar    1  UNL1       -0.0061
     26 C         141.8061  139.8775  168.3686 C.ar    1  UNL1       -0.0029
     27 C         142.7108  139.9858  169.5601 C.ar    1  UNL1       -0.0003
     28 C         142.1569  140.4176  170.8855 C.ar    1  UNL1       -0.0000
     29 C         140.6983  140.7410  171.0194 C.ar    1  UNL1       -0.0003
     30 C         139.7937  140.6327  169.8279 C.ar    1  UNL1       -0.0029
@<TRIPOS>BOND
     1    14    15    2
     2    15    16    2
     3    15    12    1
     4    12    11    1
     5    11    10    1
     6    10     1    1
     7     1     2    1
     8     2     3    1
     9     3     4    1
    10     4     5    1
    11     5    24    1
    12    24    25    1
    13    25    26   ar
    14    26    27   ar
    15    27    28   ar
    16    28    29   ar
    17    29    30   ar
    18     5     6    1
    19     6     7    1
    20     7     8    1
    21     7     9    1
    22    15    17    1
    23    17    18   ar
    24    18    19   ar
    25    19    20   ar
    26    20    21    1
    27    20    22   ar
    28    22    23   ar
    29     8     1    1
    30    23    17   ar
    31     9     3    1
    32    30    25   ar
    33    12    13    1
@<TRIPOS>MOLECULE
*****
 30 33 0 0 0
SMALL
GASTEIGER

@<TRIPOS>ATOM
      1 N         138.9106  138.3586  163.1004 N.3     1  UNL1       -0.2673
      2 C         140.3185  137.8677  162.9364 C.3     1  UNL1        0.1035
      3 C         141.3195  138.0808  164.0330 C.3     1  UNL1        0.1470
      4 C         142.3206  138.2939  165.1296 C.3     1  UNL1        0.1037
      5 N         141.9137  138.9977  166.3901 N.3     1  UNL1       -0.2647
      6 C         140.5057  139.4886  166.5541 C.3     1  UNL1        0.1037
      7 C         139.5047  139.2755  165.4575 C.3     1  UNL1        0.1470
      8 C         138.5037  139.0624  164.3609 C.3     1  UNL1        0.1035
      9 O         140.9126  138.7847  165.2935 O.3     1  UNL1       -0.3530
     10 C         137.9095  138.1455  162.0037 C.3     1  UNL1        0.0913
     11 C         137.6768  139.2185  160.9818 C.3     1  UNL1        0.1087
     12 N         137.1331  140.5513  161.4041 N.3     1  UNL1       -0.1780
     13 H         136.6361  140.9347  160.6001 H       1  UNL1        0.1488
     14 O         137.0702  142.0123  162.9408 O.2     1  UNL1       -0.1530
     15 S         138.0651  141.6222  161.8881 S.O2    1  UNL1        0.0603
     16 O         139.0600  141.2322  160.8355 O.2     1  UNL1       -0.1530
     17 C         138.9971  142.6932  162.3722 C.ar    1  UNL1        0.1221
     18 C         138.5003  143.7511  163.3125 C.ar    1  UNL1        0.0222
     19 C         139.4324  144.8221  163.7965 C.ar    1  UNL1        0.0310
     20 C         140.8612  144.8352  163.3402 C.ar    1  UNL1        0.1402
     21 F         141.7932  145.9062  163.8243 F       1  UNL1       -0.2042
     22 C         141.3580  143.7773  162.4000 C.ar    1  UNL1        0.0310
     23 C         140.4260  142.7064  161.9159 C.ar    1  UNL1        0.0222
     24 C         142.9147  139.2108  167.4867 C.3     1  UNL1        0.0993
     25 C         142.6294  140.1954  168.5818 C.ar    1  UNL1       -0.0061
     26 C         142.0627  139.7217  169.8874 C.ar    1  UNL1       -0.0029
     27 C         141.7774  140.7063  170.9825 C.ar    1  UNL1       -0.0003
     28 C         142.0587  142.1645  170.7719 C.ar    1  UNL1       -0.0000
     29 C         142.6253  142.6382  169.4664 C.ar    1  UNL1       -0.0003
     30 C         142.9107  141.6537  168.3713 C.ar    1  UNL1       -0.0029
@<TRIPOS>BOND
     1    14    15    2
     2    15    16    2
     3    15    12    1
     4    12    11    1
     5    11    10    1
     6    10     1    1
     7     1     2    1
     8     2     3    1
     9     3     4    1
    10     4     5    1
    11     5    24    1
    12    24    25    1
    13    25    26   ar
    14    26    27   ar
    15    27    28   ar
    16    28    29   ar
    17    29    30   ar
    18     5     6    1
    19     6     7    1
    20     7     8    1
    21     7     9    1
    22    15    17    1
    23    17    18   ar
    24    18    19   ar
    25    19    20   ar
    26    20    21    1
    27    20    22   ar
    28    22    23   ar
    29     8     1    1
    30    23    17   ar
    31     9     3    1
    32    30    25   ar
    33    12    13    1
@<TRIPOS>MOLECULE
*****
 30 33 0 0 0
SMALL
GASTEIGER

@<TRIPOS>ATOM
      1 N         142.1611  140.3573  161.7634 N.3     1  UNL1       -0.2673
      2 C         142.9630  139.5258  162.7202 C.3     1  UNL1        0.1035
      3 C         143.1130  139.9605  164.1480 C.3     1  UNL1        0.1470
      4 C         143.2631  140.3951  165.5758 C.3     1  UNL1        0.1037
      5 N         142.6113  141.6614  166.0467 N.3     1  UNL1       -0.2647
      6 C         141.8094  142.4930  165.0898 C.3     1  UNL1        0.1037
      7 C         141.6594  142.0583  163.6621 C.3     1  UNL1        0.1470
      8 C         141.5094  141.6236  162.2344 C.3     1  UNL1        0.1035
      9 O         142.4612  141.2267  164.6189 O.3     1  UNL1       -0.3530
     10 C         142.0111  139.9227  160.3356 C.3     1  UNL1        0.0913
     11 C         140.6613  139.5374  159.8068 C.3     1  UNL1        0.1087
     12 N         139.9070  138.4015  160.4321 N.3     1  UNL1       -0.1780
     13 H         139.0637  138.2658  159.8746 H       1  UNL1        0.1488
     14 O         140.3477  137.3218  162.2040 O.2     1  UNL1       -0.1530
     15 S         139.4699  138.4897  161.8642 S.O2    1  UNL1        0.0603
     16 O         138.5921  139.6575  161.5244 O.2     1  UNL1       -0.1530
     17 C         139.0328  138.5778  163.2964 C.ar    1  UNL1        0.1221
     18 C         139.0220  137.3475  164.1544 C.ar    1  UNL1        0.0222
     19 C         138.5848  137.4357  165.5866 C.ar    1  UNL1        0.0310
     20 C         138.1586  138.7542  166.1608 C.ar    1  UNL1        0.1402
     21 F         137.7214  138.8423  167.5929 F       1  UNL1       -0.2042
     22 C         138.1694  139.9845  165.3028 C.ar    1  UNL1        0.0310
     23 C         138.6065  139.8964  163.8707 C.ar    1  UNL1        0.0222
     24 C         142.7613  142.0961  167.4745 C.3     1  UNL1        0.0993
     25 C         141.6088  141.9601  168.4250 C.ar    1  UNL1       -0.0061
     26 C         140.8175  140.6865  168.4669 C.ar    1  UNL1       -0.0029
     27 C         139.6651  140.5505  169.4173 C.ar    1  UNL1       -0.0003
     28 C         139.3040  141.6881  170.3258 C.ar    1  UNL1       -0.0000
     29 C         140.0953  142.9617  170.2838 C.ar    1  UNL1       -0.0003
     30 C         141.2477  143.0977  169.3334 C.ar    1  UNL1       -0.0029
@<TRIPOS>BOND
     1    14    15    2
     2    15    16    2
     3    15    12    1
     4    12    11    1
     5    11    10    1
     6    10     1    1
     7     1     2    1
     8     2     3    1
     9     3     4    1
    10     4     5    1
    11     5    24    1
    12    24    25    1
    13    25    26   ar
    14    26    27   ar
    15    27    28   ar
    16    28    29   ar
    17    29    30   ar
    18     5     6    1
    19     6     7    1
    20     7     8    1
    21     7     9    1
    22    15    17    1
    23    17    18   ar
    24    18    19   ar
    25    19    20   ar
    26    20    21    1
    27    20    22   ar
    28    22    23   ar
    29     8     1    1
    30    23    17   ar
    31     9     3    1
    32    30    25   ar
    33    12    13    1
@<TRIPOS>MOLECULE
*****
 30 33 0 0 0
SMALL
GASTEIGER

@<TRIPOS>ATOM
      1 N         140.7515  138.8390  161.1863 N.3     1  UNL1       -0.2673
      2 C         141.4498  140.0947  161.6171 C.3     1  UNL1        0.1035
      3 C         141.9717  140.2198  163.0178 C.3     1  UNL1        0.1470
      4 C         142.4937  140.3450  164.4185 C.3     1  UNL1        0.1037
      5 N         142.3173  139.2144  165.3884 N.3     1  UNL1       -0.2647
      6 C         141.6190  137.9587  164.9576 C.3     1  UNL1        0.1037
      7 C         141.0971  137.8335  163.5569 C.3     1  UNL1        0.1470
      8 C         140.5752  137.7084  162.1562 C.3     1  UNL1        0.1035
      9 O         141.7954  139.0893  163.9877 O.3     1  UNL1       -0.3530
     10 C         140.2296  138.7138  159.7856 C.3     1  UNL1        0.0913
     11 C         138.9870  139.4494  159.3797 C.3     1  UNL1        0.1087
     12 N         137.8732  139.6417  160.3661 N.3     1  UNL1       -0.1780
     13 H         137.0386  139.8716  159.8267 H       1  UNL1        0.1488
     14 O         138.2724  141.7248  160.3999 O.2     1  UNL1       -0.1530
     15 S         137.9942  140.6811  161.4407 S.O2    1  UNL1        0.0603
     16 O         137.7161  139.6374  162.4815 O.2     1  UNL1       -0.1530
     17 C         138.1152  141.7205  162.5154 C.ar    1  UNL1        0.1221
     18 C         137.8076  143.1561  162.2083 C.ar    1  UNL1        0.0222
     19 C         137.9286  144.1956  163.2830 C.ar    1  UNL1        0.0310
     20 C         138.3573  143.7994  164.6647 C.ar    1  UNL1        0.1402
     21 F         138.4783  144.8388  165.7394 F       1  UNL1       -0.2042
     22 C         138.6650  142.3638  164.9718 C.ar    1  UNL1        0.0310
     23 C         138.5440  141.3243  163.8972 C.ar    1  UNL1        0.0222
     24 C         142.8392  139.3396  166.7891 C.3     1  UNL1        0.0993
     25 C         141.9032  139.6804  167.9106 C.ar    1  UNL1       -0.0061
     26 C         142.4119  139.7386  169.3205 C.ar    1  UNL1       -0.0029
     27 C         141.4760  140.0794  170.4420 C.ar    1  UNL1       -0.0003
     28 C         140.0314  140.3622  170.1536 C.ar    1  UNL1       -0.0000
     29 C         139.5228  140.3040  168.7437 C.ar    1  UNL1       -0.0003
     30 C         140.4587  139.9632  167.6222 C.ar    1  UNL1       -0.0029
@<TRIPOS>BOND
     1    14    15    2
     2    15    16    2
     3    15    12    1
     4    12    11    1
     5    11    10    1
     6    10     1    1
     7     1     2    1
     8     2     3    1
     9     3     4    1
    10     4     5    1
    11     5    24    1
    12    24    25    1
    13    25    26   ar
    14    26    27   ar
    15    27    28   ar
    16    28    29   ar
    17    29    30   ar
    18     5     6    1
    19     6     7    1
    20     7     8    1
    21     7     9    1
    22    15    17    1
    23    17    18   ar
    24    18    19   ar
    25    19    20   ar
    26    20    21    1
    27    20    22   ar
    28    22    23   ar
    29     8     1    1
    30    23    17   ar
    31     9     3    1
    32    30    25   ar
    33    12    13    1
@<TRIPOS>MOLECULE
*****
 30 33 0 0 0
SMALL
GASTEIGER

@<TRIPOS>ATOM
      1 N         139.1131  142.5762  160.3193 N.3     1  UNL1       -0.2673
      2 C         140.5468  142.2886  160.6536 C.3     1  UNL1        0.1035
      3 C         141.0238  142.4032  162.0711 C.3     1  UNL1        0.1470
      4 C         141.5009  142.5177  163.4886 C.3     1  UNL1        0.1037
      5 N         140.5442  142.9198  164.5717 N.3     1  UNL1       -0.2647
      6 C         139.1105  143.2074  164.2373 C.3     1  UNL1        0.1037
      7 C         138.6335  143.0928  162.8198 C.3     1  UNL1        0.1470
      8 C         138.1565  142.9783  161.4024 C.3     1  UNL1        0.1035
      9 O         140.0672  142.8053  163.1542 O.3     1  UNL1       -0.3530
     10 C         138.6360  142.4616  158.9017 C.3     1  UNL1        0.0913
     11 C         138.5345  141.1139  158.2511 C.3     1  UNL1        0.1087
     12 N         137.8564  139.9841  158.9680 N.3     1  UNL1       -0.1780
     13 H         136.9746  140.3502  159.3269 H       1  UNL1        0.1488
     14 O         139.7433  139.0573  159.2518 O.2     1  UNL1       -0.1530
     15 S         138.5425  139.3049  160.1160 S.O2    1  UNL1        0.0603
     16 O         137.3418  139.5526  160.9801 O.2     1  UNL1       -0.1530
     17 C         139.2286  138.6258  161.2639 C.ar    1  UNL1        0.1221
     18 C         138.4429  138.2280  162.4782 C.ar    1  UNL1        0.0222
     19 C         139.1291  137.5487  163.6262 C.ar    1  UNL1        0.0310
     20 C         140.6009  137.2673  163.5599 C.ar    1  UNL1        0.1402
     21 F         141.2871  136.5881  164.7079 F       1  UNL1       -0.2042
     22 C         141.3867  137.6651  162.3457 C.ar    1  UNL1        0.0310
     23 C         140.7006  138.3443  161.1977 C.ar    1  UNL1        0.0222
     24 C         141.0213  143.0343  165.9892 C.3     1  UNL1        0.0993
     25 C         140.4741  142.1157  167.0413 C.ar    1  UNL1       -0.0061
     26 C         139.9447  140.7659  166.6567 C.ar    1  UNL1       -0.0029
     27 C         139.3975  139.8473  167.7087 C.ar    1  UNL1       -0.0003
     28 C         139.3798  140.2784  169.1452 C.ar    1  UNL1       -0.0000
     29 C         139.9092  141.6282  169.5298 C.ar    1  UNL1       -0.0003
     30 C         140.4563  142.5468  168.4779 C.ar    1  UNL1       -0.0029
@<TRIPOS>BOND
     1    14    15    2
     2    15    16    2
     3    15    12    1
     4    12    11    1
     5    11    10    1
     6    10     1    1
     7     1     2    1
     8     2     3    1
     9     3     4    1
    10     4     5    1
    11     5    24    1
    12    24    25    1
    13    25    26   ar
    14    26    27   ar
    15    27    28   ar
    16    28    29   ar
    17    29    30   ar
    18     5     6    1
    19     6     7    1
    20     7     8    1
    21     7     9    1
    22    15    17    1
    23    17    18   ar
    24    18    19   ar
    25    19    20   ar
    26    20    21    1
    27    20    22   ar
    28    22    23   ar
    29     8     1    1
    30    23    17   ar
    31     9     3    1
    32    30    25   ar
    33    12    13    1
@<TRIPOS>MOLECULE
*****
 30 33 0 0 0
SMALL
GASTEIGER

@<TRIPOS>ATOM
      1 N         142.8333  141.0127  161.3280 N.3     1  UNL1       -0.2673
      2 C         143.9822  141.0839  162.2898 C.3     1  UNL1        0.1035
      3 C         143.7754  140.7298  163.7326 C.3     1  UNL1        0.1470
      4 C         143.5686  140.3758  165.1756 C.3     1  UNL1        0.1037
      5 N         142.2130  139.9506  165.6567 N.3     1  UNL1       -0.2647
      6 C         141.0641  139.8795  164.6948 C.3     1  UNL1        0.1037
      7 C         141.2709  140.2336  163.2520 C.3     1  UNL1        0.1470
      8 C         141.4777  140.5876  161.8091 C.3     1  UNL1        0.1035
      9 O         142.4197  140.3047  164.2137 O.3     1  UNL1       -0.3530
     10 C         143.0401  141.3668  159.8851 C.3     1  UNL1        0.0913
     11 C         143.5750  142.7180  159.5136 C.3     1  UNL1        0.1087
     12 N         142.7083  143.9337  159.6589 N.3     1  UNL1       -0.1780
     13 H         143.3245  144.7440  159.5951 H       1  UNL1        0.1488
     14 O         140.6393  143.7988  160.1073 O.2     1  UNL1       -0.1530
     15 S         141.8763  144.1184  160.8932 S.O2    1  UNL1        0.0603
     16 O         143.1132  144.4381  161.6791 O.2     1  UNL1       -0.1530
     17 C         141.0443  144.3032  162.1275 C.ar    1  UNL1        0.1221
     18 C         139.6493  144.8436  162.0177 C.ar    1  UNL1        0.0222
     19 C         138.8173  145.0283  163.2522 C.ar    1  UNL1        0.0310
     20 C         139.3803  144.6728  164.5962 C.ar    1  UNL1        0.1402
     21 F         138.5483  144.8576  165.8306 F       1  UNL1       -0.2042
     22 C         140.7753  144.1325  164.7060 C.ar    1  UNL1        0.0310
     23 C         141.6073  143.9477  163.4717 C.ar    1  UNL1        0.0222
     24 C         142.0062  139.5966  167.0995 C.3     1  UNL1        0.0993
     25 C         141.2913  140.5499  168.0107 C.ar    1  UNL1       -0.0061
     26 C         140.4493  140.0239  169.1351 C.ar    1  UNL1       -0.0029
     27 C         139.7344  140.9771  170.0462 C.ar    1  UNL1       -0.0003
     28 C         139.8616  142.4564  169.8330 C.ar    1  UNL1       -0.0000
     29 C         140.7036  142.9825  168.7086 C.ar    1  UNL1       -0.0003
     30 C         141.4185  142.0292  167.7975 C.ar    1  UNL1       -0.0029
@<TRIPOS>BOND
     1    14    15    2
     2    15    16    2
     3    15    12    1
     4    12    11    1
     5    11    10    1
     6    10     1    1
     7     1     2    1
     8     2     3    1
     9     3     4    1
    10     4     5    1
    11     5    24    1
    12    24    25    1
    13    25    26   ar
    14    26    27   ar
    15    27    28   ar
    16    28    29   ar
    17    29    30   ar
    18     5     6    1
    19     6     7    1
    20     7     8    1
    21     7     9    1
    22    15    17    1
    23    17    18   ar
    24    18    19   ar
    25    19    20   ar
    26    20    21    1
    27    20    22   ar
    28    22    23   ar
    29     8     1    1
    30    23    17   ar
    31     9     3    1
    32    30    25   ar
    33    12    13    1
@<TRIPOS>MOLECULE
*****
 30 33 0 0 0
SMALL
GASTEIGER

@<TRIPOS>ATOM
      1 N         143.7991  141.1342  160.7996 N.3     1  UNL1       -0.2673
      2 C         143.0175  139.8695  160.9986 C.3     1  UNL1        0.1035
      3 C         142.9065  139.2639  162.3663 C.3     1  UNL1        0.1470
      4 C         142.7955  138.6581  163.7342 C.3     1  UNL1        0.1037
      5 N         143.4661  139.3172  164.9029 N.3     1  UNL1       -0.2647
      6 C         144.2477  140.5820  164.7039 C.3     1  UNL1        0.1037
      7 C         144.3587  141.1876  163.3361 C.3     1  UNL1        0.1470
      8 C         144.4697  141.7933  161.9683 C.3     1  UNL1        0.1035
      9 O         143.5771  139.9229  163.5351 O.3     1  UNL1       -0.3530
     10 C         143.9101  141.7399  159.4318 C.3     1  UNL1        0.0913
     11 C         142.8804  142.7239  158.9614 C.3     1  UNL1        0.1087
     12 N         142.6546  143.9956  159.7243 N.3     1  UNL1       -0.1780
     13 H         143.5366  144.2246  160.1826 H       1  UNL1        0.1488
     14 O         142.5350  144.7835  161.6902 O.2     1  UNL1       -0.1530
     15 S         141.5896  144.0588  160.7786 S.O2    1  UNL1        0.0603
     16 O         140.6442  143.3340  159.8671 O.2     1  UNL1       -0.1530
     17 C         140.5246  144.1219  161.8330 C.ar    1  UNL1        0.1221
     18 C         140.8122  144.7772  163.1513 C.ar    1  UNL1        0.0222
     19 C         139.7471  144.8403  164.2057 C.ar    1  UNL1        0.0310
     20 C         138.3945  144.2481  163.9418 C.ar    1  UNL1        0.1402
     21 F         137.3295  144.3112  164.9961 F       1  UNL1       -0.2042
     22 C         138.1069  143.5927  162.6235 C.ar    1  UNL1        0.0310
     23 C         139.1719  143.5296  161.5691 C.ar    1  UNL1        0.0222
     24 C         143.3551  138.7115  166.2707 C.3     1  UNL1        0.0993
     25 C         142.3232  139.2187  167.2341 C.ar    1  UNL1       -0.0061
     26 C         140.9975  139.7035  166.7266 C.ar    1  UNL1       -0.0029
     27 C         139.9656  140.2107  167.6899 C.ar    1  UNL1       -0.0003
     28 C         140.2595  140.2331  169.1606 C.ar    1  UNL1       -0.0000
     29 C         141.5852  139.7483  169.6681 C.ar    1  UNL1       -0.0003
     30 C         142.6170  139.2412  168.7048 C.ar    1  UNL1       -0.0029
@<TRIPOS>BOND
     1    14    15    2
     2    15    16    2
     3    15    12    1
     4    12    11    1
     5    11    10    1
     6    10     1    1
     7     1     2    1
     8     2     3    1
     9     3     4    1
    10     4     5    1
    11     5    24    1
    12    24    25    1
    13    25    26   ar
    14    26    27   ar
    15    27    28   ar
    16    28    29   ar
    17    29    30   ar
    18     5     6    1
    19     6     7    1
    20     7     8    1
    21     7     9    1
    22    15    17    1
    23    17    18   ar
    24    18    19   ar
    25    19    20   ar
    26    20    21    1
    27    20    22   ar
    28    22    23   ar
    29     8     1    1
    30    23    17   ar
    31     9     3    1
    32    30    25   ar
    33    12    13    1
@<TRIPOS>MOLECULE
*****
 30 33 0 0 0
SMALL
GASTEIGER

@<TRIPOS>ATOM
      1 N         141.0700  143.3446  160.9680 N.3     1  UNL1       -0.2673
      2 C         140.5822  141.9265  160.9372 C.3     1  UNL1        0.1035
      3 C         140.1465  141.2556  162.2060 C.3     1  UNL1        0.1470
      4 C         139.7107  140.5846  163.4749 C.3     1  UNL1        0.1037
      5 N         139.7627  141.3318  164.7745 N.3     1  UNL1       -0.2647
      6 C         140.2505  142.7500  164.8052 C.3     1  UNL1        0.1037
      7 C         140.6863  143.4209  163.5364 C.3     1  UNL1        0.1470
      8 C         141.1220  144.0918  162.2676 C.3     1  UNL1        0.1035
      9 O         140.1985  142.0028  163.5056 O.3     1  UNL1       -0.3530
     10 C         141.5058  144.0156  159.6991 C.3     1  UNL1        0.0913
     11 C         142.5906  143.4052  158.8622 C.3     1  UNL1        0.1087
     12 N         143.9757  143.2596  159.4195 N.3     1  UNL1       -0.1780
     13 H         144.5636  142.9146  158.6608 H       1  UNL1        0.1488
     14 O         143.8687  141.1690  159.7624 O.2     1  UNL1       -0.1530
     15 S         144.2197  142.3642  160.5979 S.O2    1  UNL1        0.0603
     16 O         144.5708  143.5594  161.4334 O.2     1  UNL1       -0.1530
     17 C         144.4638  141.4687  161.7762 C.ar    1  UNL1        0.1221
     18 C         143.8043  140.1233  161.8451 C.ar    1  UNL1        0.0222
     19 C         144.0483  139.2278  163.0236 C.ar    1  UNL1        0.0310
     20 C         144.9519  139.6778  164.1330 C.ar    1  UNL1        0.1402
     21 F         145.1960  138.7824  165.3114 F       1  UNL1       -0.2042
     22 C         145.6114  141.0233  164.0642 C.ar    1  UNL1        0.0310
     23 C         145.3674  141.9187  162.8858 C.ar    1  UNL1        0.0222
     24 C         139.3270  140.6609  166.0433 C.3     1  UNL1        0.0993
     25 C         140.3473  140.2505  167.0634 C.ar    1  UNL1       -0.0061
     26 C         141.7444  139.9141  166.6334 C.ar    1  UNL1       -0.0029
     27 C         142.7648  139.5037  167.6535 C.ar    1  UNL1       -0.0003
     28 C         142.3880  139.4299  169.1034 C.ar    1  UNL1       -0.0000
     29 C         140.9909  139.7663  169.5334 C.ar    1  UNL1       -0.0003
     30 C         139.9706  140.1767  168.5134 C.ar    1  UNL1       -0.0029
@<TRIPOS>BOND
     1    14    15    2
     2    15    16    2
     3    15    12    1
     4    12    11    1
     5    11    10    1
     6    10     1    1
     7     1     2    1
     8     2     3    1
     9     3     4    1
    10     4     5    1
    11     5    24    1
    12    24    25    1
    13    25    26   ar
    14    26    27   ar
    15    27    28   ar
    16    28    29   ar
    17    29    30   ar
    18     5     6    1
    19     6     7    1
    20     7     8    1
    21     7     9    1
    22    15    17    1
    23    17    18   ar
    24    18    19   ar
    25    19    20   ar
    26    20    21    1
    27    20    22   ar
    28    22    23   ar
    29     8     1    1
    30    23    17   ar
    31     9     3    1
    32    30    25   ar
    33    12    13    1
