@<TRIPOS>MOLECULE
*****
 49 55 0 0 0
SMALL
GASTEIGER

@<TRIPOS>ATOM
      1 C         140.7113  142.1514  161.9090 C.3     1  UNL1        0.0236
      2 C         141.2617  142.9092  163.0806 C.3     1  UNL1        0.0257
      3 C         141.2488  142.2906  164.4471 C.3     1  UNL1        0.0940
      4 N         140.6856  140.9140  164.6419 N.am    1  UNL1       -0.2760
      5 C         140.6728  140.2954  166.0083 C.2     1  UNL1        0.2512
      6 O         140.1095  138.9188  166.2031 O.2     1  UNL1       -0.2698
      7 C         140.1353  140.1562  163.4702 C.3     1  UNL1        0.0940
      8 C         140.1481  140.7748  162.1038 C.3     1  UNL1        0.0257
      9 C         141.2231  141.0533  167.1799 C.ar    1  UNL1        0.0824
     10 C         140.2963  141.5776  168.2364 C.ar    1  UNL1        0.0275
     11 C         140.8468  142.3355  169.4079 C.ar    1  UNL1        0.1325
     12 C         142.3240  142.5692  169.5230 C.ar    1  UNL1        0.0784
     13 CL        142.8744  143.3271  170.6946 Cl      1  UNL1       -0.0808
     14 C         143.2508  142.0449  168.4665 C.ar    1  UNL1        0.0425
     15 C         142.7003  141.2870  167.2949 C.ar    1  UNL1        0.1454
     16 F         143.6271  140.7627  166.2384 F       1  UNL1       -0.2040
     17 S         139.9200  142.8598  170.4644 S.O2    1  UNL1        0.0580
     18 N         138.9932  143.3841  171.5210 N.3     1  UNL1       -0.2034
     19 O         139.8858  144.1909  169.7738 O.2     1  UNL1       -0.1532
     20 O         139.9543  141.5286  171.1550 O.2     1  UNL1       -0.1532
     21 H         138.7612  144.3563  171.3177 H       1  UNL1        0.1442
     22 H         139.4487  143.3266  172.4318 H       1  UNL1        0.1442
     23 C         140.3079  141.8331  160.4997 C.ar    1  UNL1       -0.0204
     24 C         141.1093  140.8550  159.6929 C.ar    1  UNL1       -0.0041
     25 C         140.7059  140.5368  158.2836 C.ar    1  UNL1        0.0020
     26 C         139.5010  141.1967  157.6812 C.ar    1  UNL1        0.0296
     27 C         138.6995  142.1748  158.4881 C.ar    1  UNL1        0.1398
     28 F         137.4947  142.8346  157.8858 F       1  UNL1       -0.2042
     29 C         139.1031  142.4929  159.8974 C.ar    1  UNL1        0.0254
     30 C         141.1344  143.4173  161.2248 C.3     1  UNL1        0.0215
     31 C         142.5882  143.7793  161.1492 C.3     1  UNL1        0.0723
     32 C         142.6808  143.7759  161.2758 C.3     1  UNL1        0.0893
     33 C         143.1196  142.4157  160.8201 C.3     1  UNL1        0.0386
     34 C         144.1270  141.6452  161.6209 C.3     1  UNL1        0.0594
     35 C         145.1084  141.2602  162.6880 C.3     1  UNL1        0.0174
     36 C         145.1835  142.3859  163.6766 C.3     1  UNL1        0.0174
     37 C         144.2485  143.4665  163.2205 C.3     1  UNL1        0.0594
     38 C         143.2496  144.3654  162.5323 C.3     1  UNL1        0.0386
     39 N         143.5956  143.0088  161.9499 N.3     1  UNL1       -0.2751
     40 C         140.7235  145.5977  162.5189 C.3     1  UNL1        0.0718
     41 C         140.6459  145.4908  161.0248 C.ar    1  UNL1        0.1207
     42 N         139.8541  146.0358  159.8733 N.ar    1  UNL1       -0.2309
     43 C         140.3922  145.4283  158.6118 C.ar    1  UNL1        0.0983
     44 C         140.0036  145.5943  157.1726 C.ar    1  UNL1        0.0206
     45 C         140.7394  144.8398  156.1053 C.ar    1  UNL1        0.0016
     46 C         141.8638  143.9193  156.4771 C.ar    1  UNL1        0.0016
     47 C         142.2524  143.7532  157.9163 C.ar    1  UNL1        0.0188
     48 C         141.5166  144.5077  158.9837 C.ar    1  UNL1        0.0785
     49 N         141.6734  144.5464  160.4750 N.ar    1  UNL1       -0.3167
@<TRIPOS>BOND
     1    40    41    1
     2    41    42   ar
     3    42    43   ar
     4    43    44   ar
     5    44    45   ar
     6    45    46   ar
     7    46    47   ar
     8    47    48   ar
     9    48    49   ar
    10    49    32    1
    11    32    33    1
    12    33    34    1
    13    34    35    1
    14    35    36    1
    15    36    37    1
    16    37    38    1
    17    37    39    1
    18    39    31    1
    19    31    30    1
    20    30     1    1
    21     1    23    1
    22    23    24   ar
    23    24    25   ar
    24    25    26   ar
    25    26    27   ar
    26    27    28    1
    27    27    29   ar
    28     1     2    1
    29     2     3    1
    30     3     4    1
    31     4     5   am
    32     5     6    2
    33     5     9    1
    34     9    10   ar
    35    10    11   ar
    36    11    17    1
    37    17    18    1
    38    17    19    2
    39    17    20    2
    40    11    12   ar
    41    12    13    1
    42    12    14   ar
    43    14    15   ar
    44    15    16    1
    45     4     7    1
    46     7     8    1
    47    49    41   ar
    48    38    32    1
    49     8     1    1
    50    48    43   ar
    51    39    34    1
    52    29    23   ar
    53    15     9   ar
    54    18    21    1
    55    18    22    1
@<TRIPOS>MOLECULE
*****
 49 55 0 0 0
SMALL
GASTEIGER

@<TRIPOS>ATOM
      1 C         141.6204  141.8962  164.9005 C.3     1  UNL1        0.0236
      2 C         141.6122  141.0074  163.6921 C.3     1  UNL1        0.0257
      3 C         141.6539  141.6086  162.3185 C.3     1  UNL1        0.0940
      4 N         141.7039  143.0987  162.1532 N.am    1  UNL1       -0.2760
      5 C         141.7456  143.6999  160.7796 C.2     1  UNL1        0.2512
      6 O         141.7956  145.1899  160.6143 O.2     1  UNL1       -0.2698
      7 C         141.7122  143.9874  163.3616 C.3     1  UNL1        0.0940
      8 C         141.6704  143.3862  164.7351 C.3     1  UNL1        0.0257
      9 C         141.7373  142.8111  159.5714 C.ar    1  UNL1        0.0824
     10 C         143.0294  142.2944  159.0115 C.ar    1  UNL1        0.0275
     11 C         143.0210  141.4055  157.8032 C.ar    1  UNL1        0.1325
     12 C         141.7205  141.0334  157.1548 C.ar    1  UNL1        0.0784
     13 CL        141.7122  140.1446  155.9466 Cl      1  UNL1       -0.0808
     14 C         140.4284  141.5501  157.7148 C.ar    1  UNL1        0.0425
     15 C         140.4368  142.4390  158.9230 C.ar    1  UNL1        0.1454
     16 F         139.1447  142.9557  159.4829 F       1  UNL1       -0.2040
     17 S         144.3131  140.8888  157.2433 S.O2    1  UNL1        0.0580
     18 N         145.6052  140.3720  156.6834 N.3     1  UNL1       -0.2034
     19 O         144.1974  139.6662  158.1046 O.2     1  UNL1       -0.1532
     20 O         144.4288  142.1114  156.3820 O.2     1  UNL1       -0.1532
     21 H         145.8239  139.4710  157.1087 H       1  UNL1        0.1442
     22 H         146.3533  141.0347  156.8872 H       1  UNL1        0.1442
     23 C         141.6101  142.3185  166.3398 C.ar    1  UNL1       -0.0204
     24 C         140.3697  142.9127  166.9382 C.ar    1  UNL1       -0.0041
     25 C         140.3594  143.3350  168.3775 C.ar    1  UNL1        0.0020
     26 C         141.5896  143.1630  169.2184 C.ar    1  UNL1        0.0296
     27 C         142.8301  142.5687  168.6199 C.ar    1  UNL1        0.1398
     28 F         144.0601  142.3967  169.4608 F       1  UNL1       -0.2042
     29 C         142.8403  142.1464  167.1806 C.ar    1  UNL1        0.0254
     30 C         141.5669  140.5528  165.5656 C.3     1  UNL1        0.0215
     31 C         140.3338  139.7066  165.4487 C.3     1  UNL1        0.0723
     32 C         140.2732  139.6730  165.3079 C.3     1  UNL1        0.0893
     33 C         139.2918  140.7805  165.5537 C.3     1  UNL1        0.0386
     34 C         138.2539  141.1059  164.5208 C.3     1  UNL1        0.0594
     35 C         137.4318  141.0783  163.2664 C.3     1  UNL1        0.0174
     36 C         137.9658  139.9874  162.3862 C.3     1  UNL1        0.0174
     37 C         139.1179  139.3407  163.0965 C.3     1  UNL1        0.0594
     38 C         140.2166  138.8910  164.0292 C.3     1  UNL1        0.0386
     39 N         139.2960  140.0321  164.4159 N.3     1  UNL1       -0.2751
     40 C         142.9341  138.6142  164.6049 C.3     1  UNL1        0.0718
     41 C         142.6842  138.8074  166.0712 C.ar    1  UNL1        0.1207
     42 N         143.3798  138.6312  167.3885 N.ar    1  UNL1       -0.2309
     43 C         142.4365  139.0624  168.4721 C.ar    1  UNL1        0.0983
     44 C         142.5766  139.1091  169.9648 C.ar    1  UNL1        0.0206
     45 C         141.4381  139.5985  170.8100 C.ar    1  UNL1        0.0016
     46 C         140.1596  140.0412  170.1625 C.ar    1  UNL1        0.0016
     47 C         140.0195  139.9946  168.6698 C.ar    1  UNL1        0.0188
     48 C         141.1579  139.5051  167.8246 C.ar    1  UNL1        0.0785
     49 N         141.3111  139.3475  166.3408 N.ar    1  UNL1       -0.3167
@<TRIPOS>BOND
     1    40    41    1
     2    41    42   ar
     3    42    43   ar
     4    43    44   ar
     5    44    45   ar
     6    45    46   ar
     7    46    47   ar
     8    47    48   ar
     9    48    49   ar
    10    49    32    1
    11    32    33    1
    12    33    34    1
    13    34    35    1
    14    35    36    1
    15    36    37    1
    16    37    38    1
    17    37    39    1
    18    39    31    1
    19    31    30    1
    20    30     1    1
    21     1    23    1
    22    23    24   ar
    23    24    25   ar
    24    25    26   ar
    25    26    27   ar
    26    27    28    1
    27    27    29   ar
    28     1     2    1
    29     2     3    1
    30     3     4    1
    31     4     5   am
    32     5     6    2
    33     5     9    1
    34     9    10   ar
    35    10    11   ar
    36    11    17    1
    37    17    18    1
    38    17    19    2
    39    17    20    2
    40    11    12   ar
    41    12    13    1
    42    12    14   ar
    43    14    15   ar
    44    15    16    1
    45     4     7    1
    46     7     8    1
    47    49    41   ar
    48    38    32    1
    49     8     1    1
    50    48    43   ar
    51    39    34    1
    52    29    23   ar
    53    15     9   ar
    54    18    21    1
    55    18    22    1
@<TRIPOS>MOLECULE
*****
 49 55 0 0 0
SMALL
GASTEIGER

@<TRIPOS>ATOM
      1 C         140.1173  140.8310  161.6643 C.3     1  UNL1        0.0236
      2 C         140.9452  141.3680  162.7940 C.3     1  UNL1        0.0257
      3 C         140.7576  140.8317  164.1823 C.3     1  UNL1        0.0940
      4 N         139.7419  139.7586  164.4408 N.am    1  UNL1       -0.2760
      5 C         139.5543  139.2224  165.8291 C.2     1  UNL1        0.2512
      6 O         138.5387  138.1492  166.0877 O.2     1  UNL1       -0.2698
      7 C         138.9140  139.2217  163.3111 C.3     1  UNL1        0.0940
      8 C         139.1016  139.7578  161.9229 C.3     1  UNL1        0.0257
      9 C         140.3822  139.7593  166.9587 C.ar    1  UNL1        0.0824
     10 C         139.7756  140.7107  167.9471 C.ar    1  UNL1        0.0275
     11 C         140.6037  141.2476  169.0767 C.ar    1  UNL1        0.1325
     12 C         142.0384  140.8332  169.2180 C.ar    1  UNL1        0.0784
     13 CL        142.8663  141.3702  170.3476 Cl      1  UNL1       -0.0808
     14 C         142.6450  139.8819  168.2296 C.ar    1  UNL1        0.0425
     15 C         141.8169  139.3449  167.1000 C.ar    1  UNL1        0.1454
     16 F         142.4236  138.3936  166.1116 F       1  UNL1       -0.2040
     17 S         139.9970  142.1990  170.0651 S.O2    1  UNL1        0.0580
     18 N         139.3904  143.1505  171.0535 N.3     1  UNL1       -0.2034
     19 O         140.3820  143.3543  169.1893 O.2     1  UNL1       -0.1532
     20 O         139.6120  141.0437  170.9409 O.2     1  UNL1       -0.1532
     21 H         139.4997  144.1068  170.7160 H       1  UNL1        0.1442
     22 H         139.8605  143.0516  171.9532 H       1  UNL1        0.1442
     23 C         139.5768  140.6442  160.2775 C.ar    1  UNL1       -0.0204
     24 C         139.8849  139.3897  159.5152 C.ar    1  UNL1       -0.0041
     25 C         139.3445  139.2029  158.1284 C.ar    1  UNL1        0.0020
     26 C         138.4959  140.2707  157.5041 C.ar    1  UNL1        0.0296
     27 C         138.1878  141.5253  158.2665 C.ar    1  UNL1        0.1398
     28 F         137.3393  142.5930  157.6421 F       1  UNL1       -0.2042
     29 C         138.7283  141.7120  159.6532 C.ar    1  UNL1        0.0254
     30 C         140.9452  141.8393  160.9241 C.3     1  UNL1        0.0215
     31 C         142.4077  141.5908  160.7015 C.3     1  UNL1        0.0723
     32 C         142.4981  141.5404  160.8195 C.3     1  UNL1        0.0893
     33 C         142.3546  140.1658  160.2364 C.3     1  UNL1        0.0386
     34 C         143.0259  138.9976  160.8957 C.3     1  UNL1        0.0594
     35 C         143.8352  138.1686  161.8485 C.3     1  UNL1        0.0174
     36 C         144.3884  139.0813  162.9025 C.3     1  UNL1        0.0174
     37 C         143.9210  140.4744  162.6011 C.3     1  UNL1        0.0594
     38 C         143.3128  141.7467  162.0618 C.3     1  UNL1        0.0386
     39 N         143.0788  140.4227  161.3608 N.3     1  UNL1       -0.2751
     40 C         142.2743  141.7959  157.8903 C.3     1  UNL1        0.0718
     41 C         141.6697  142.9166  158.6829 C.ar    1  UNL1        0.1207
     42 N         140.9407  144.2105  158.4721 N.ar    1  UNL1       -0.2309
     43 C         140.6472  144.8020  159.8189 C.ar    1  UNL1        0.0983
     44 C         139.9521  146.0660  160.2301 C.ar    1  UNL1        0.0206
     45 C         139.8046  146.4017  161.6845 C.ar    1  UNL1        0.0016
     46 C         140.3523  145.4735  162.7278 C.ar    1  UNL1        0.0016
     47 C         141.0475  144.2096  162.3166 C.ar    1  UNL1        0.0188
     48 C         141.1949  143.8738  160.8622 C.ar    1  UNL1        0.0785
     49 N         141.8269  142.7086  160.1601 N.ar    1  UNL1       -0.3167
@<TRIPOS>BOND
     1    40    41    1
     2    41    42   ar
     3    42    43   ar
     4    43    44   ar
     5    44    45   ar
     6    45    46   ar
     7    46    47   ar
     8    47    48   ar
     9    48    49   ar
    10    49    32    1
    11    32    33    1
    12    33    34    1
    13    34    35    1
    14    35    36    1
    15    36    37    1
    16    37    38    1
    17    37    39    1
    18    39    31    1
    19    31    30    1
    20    30     1    1
    21     1    23    1
    22    23    24   ar
    23    24    25   ar
    24    25    26   ar
    25    26    27   ar
    26    27    28    1
    27    27    29   ar
    28     1     2    1
    29     2     3    1
    30     3     4    1
    31     4     5   am
    32     5     6    2
    33     5     9    1
    34     9    10   ar
    35    10    11   ar
    36    11    17    1
    37    17    18    1
    38    17    19    2
    39    17    20    2
    40    11    12   ar
    41    12    13    1
    42    12    14   ar
    43    14    15   ar
    44    15    16    1
    45     4     7    1
    46     7     8    1
    47    49    41   ar
    48    38    32    1
    49     8     1    1
    50    48    43   ar
    51    39    34    1
    52    29    23   ar
    53    15     9   ar
    54    18    21    1
    55    18    22    1
@<TRIPOS>MOLECULE
*****
 49 55 0 0 0
SMALL
GASTEIGER

@<TRIPOS>ATOM
      1 C         140.4164  141.4833  161.8194 C.3     1  UNL1        0.0236
      2 C         141.1367  141.9689  163.0423 C.3     1  UNL1        0.0257
      3 C         140.9613  141.2542  164.3494 C.3     1  UNL1        0.0940
      4 N         140.0655  140.0540  164.4336 N.am    1  UNL1       -0.2760
      5 C         139.8901  139.3393  165.7407 C.2     1  UNL1        0.2512
      6 O         138.9944  138.1391  165.8250 O.2     1  UNL1       -0.2698
      7 C         139.3452  139.5685  163.2108 C.3     1  UNL1        0.0940
      8 C         139.5206  140.2831  161.9037 C.3     1  UNL1        0.0257
      9 C         140.6105  139.8249  166.9635 C.ar    1  UNL1        0.0824
     10 C         139.9328  140.7756  167.9053 C.ar    1  UNL1        0.0275
     11 C         140.6532  141.2612  169.1281 C.ar    1  UNL1        0.1325
     12 C         142.0513  140.7960  169.4091 C.ar    1  UNL1        0.0784
     13 CL        142.7717  141.2816  170.6319 Cl      1  UNL1       -0.0808
     14 C         142.7290  139.8453  168.4674 C.ar    1  UNL1        0.0425
     15 C         142.0086  139.3598  167.2446 C.ar    1  UNL1        0.1454
     16 F         142.6862  138.4090  166.3028 F       1  UNL1       -0.2040
     17 S         139.9756  142.2119  170.0698 S.O2    1  UNL1        0.0580
     18 N         139.2979  143.1626  171.0116 N.3     1  UNL1       -0.2034
     19 O         139.5223  141.0556  170.9109 O.2     1  UNL1       -0.1532
     20 O         140.4289  143.3682  169.2287 O.2     1  UNL1       -0.1532
     21 H         138.8537  142.6368  171.7643 H       1  UNL1        0.1442
     22 H         138.5905  143.6958  170.5059 H       1  UNL1        0.1442
     23 C         139.9510  141.4051  160.3955 C.ar    1  UNL1       -0.0204
     24 C         138.5398  141.7747  160.0464 C.ar    1  UNL1       -0.0041
     25 C         138.0744  141.6965  158.6225 C.ar    1  UNL1        0.0020
     26 C         139.0203  141.2487  157.5479 C.ar    1  UNL1        0.0296
     27 C         140.4315  140.8792  157.8971 C.ar    1  UNL1        0.1398
     28 F         141.3773  140.4315  156.8224 F       1  UNL1       -0.2042
     29 C         140.8968  140.9574  159.3210 C.ar    1  UNL1        0.0254
     30 C         141.1505  142.6564  161.2407 C.3     1  UNL1        0.0215
     31 C         140.8006  144.0488  161.6752 C.3     1  UNL1        0.0723
     32 C         140.7842  144.0881  161.8263 C.3     1  UNL1        0.0893
     33 C         139.3104  143.8818  161.6376 C.3     1  UNL1        0.0386
     34 C         138.3700  144.0950  162.7866 C.3     1  UNL1        0.0594
     35 C         137.8338  144.4093  164.1518 C.3     1  UNL1        0.0174
     36 C         138.9926  144.7706  165.0331 C.3     1  UNL1        0.0174
     37 C         140.2450  144.6795  164.2126 C.3     1  UNL1        0.0594
     38 C         141.3174  144.5076  163.1640 C.3     1  UNL1        0.0386
     39 N         139.8603  144.2620  162.8242 N.3     1  UNL1       -0.2751
     40 C         143.5410  143.1077  162.1929 C.3     1  UNL1        0.0718
     41 C         143.1375  143.3811  160.7743 C.ar    1  UNL1        0.1207
     42 N         143.7032  143.3192  159.3864 N.ar    1  UNL1       -0.2309
     43 C         142.6398  143.7748  158.4316 C.ar    1  UNL1        0.0983
     44 C         142.6270  143.9212  156.9389 C.ar    1  UNL1        0.0206
     45 C         141.3913  144.4112  156.2439 C.ar    1  UNL1        0.0016
     46 C         140.1684  144.7547  157.0417 C.ar    1  UNL1        0.0016
     47 C         140.1812  144.6083  158.5345 C.ar    1  UNL1        0.0188
     48 C         141.4169  144.1183  159.2294 C.ar    1  UNL1        0.0785
     49 N         141.7245  143.8750  160.6772 N.ar    1  UNL1       -0.3167
@<TRIPOS>BOND
     1    40    41    1
     2    41    42   ar
     3    42    43   ar
     4    43    44   ar
     5    44    45   ar
     6    45    46   ar
     7    46    47   ar
     8    47    48   ar
     9    48    49   ar
    10    49    32    1
    11    32    33    1
    12    33    34    1
    13    34    35    1
    14    35    36    1
    15    36    37    1
    16    37    38    1
    17    37    39    1
    18    39    31    1
    19    31    30    1
    20    30     1    1
    21     1    23    1
    22    23    24   ar
    23    24    25   ar
    24    25    26   ar
    25    26    27   ar
    26    27    28    1
    27    27    29   ar
    28     1     2    1
    29     2     3    1
    30     3     4    1
    31     4     5   am
    32     5     6    2
    33     5     9    1
    34     9    10   ar
    35    10    11   ar
    36    11    17    1
    37    17    18    1
    38    17    19    2
    39    17    20    2
    40    11    12   ar
    41    12    13    1
    42    12    14   ar
    43    14    15   ar
    44    15    16    1
    45     4     7    1
    46     7     8    1
    47    49    41   ar
    48    38    32    1
    49     8     1    1
    50    48    43   ar
    51    39    34    1
    52    29    23   ar
    53    15     9   ar
    54    18    21    1
    55    18    22    1
@<TRIPOS>MOLECULE
*****
 49 55 0 0 0
SMALL
GASTEIGER

@<TRIPOS>ATOM
      1 C         141.1953  141.7426  161.8595 C.3     1  UNL1        0.0236
      2 C         141.1440  142.3706  163.2208 C.3     1  UNL1        0.0257
      3 C         140.9849  141.5094  164.4386 C.3     1  UNL1        0.0940
      4 N         140.8771  140.0201  164.2951 N.am    1  UNL1       -0.2760
      5 C         140.7181  139.1589  165.5129 C.2     1  UNL1        0.2512
      6 O         140.6103  137.6697  165.3695 O.2     1  UNL1       -0.2698
      7 C         140.9284  139.3921  162.9339 C.3     1  UNL1        0.0940
      8 C         141.0875  140.2533  161.7161 C.3     1  UNL1        0.0257
      9 C         140.6668  139.7870  166.8741 C.ar    1  UNL1        0.0824
     10 C         141.9106  140.3660  167.4804 C.ar    1  UNL1        0.0275
     11 C         141.8593  140.9941  168.8416 C.ar    1  UNL1        0.1325
     12 C         140.5640  141.0431  169.5966 C.ar    1  UNL1        0.0784
     13 CL        140.5128  141.6712  170.9578 Cl      1  UNL1       -0.0808
     14 C         139.3202  140.4641  168.9904 C.ar    1  UNL1        0.0425
     15 C         139.3716  139.8360  167.6291 C.ar    1  UNL1        0.1454
     16 F         138.1277  139.2570  167.0229 F       1  UNL1       -0.2040
     17 S         143.1031  141.5732  169.4478 S.O2    1  UNL1        0.0580
     18 N         144.3471  142.1522  170.0541 N.3     1  UNL1       -0.2034
     19 O         143.3722  140.2701  170.1403 O.2     1  UNL1       -0.1532
     20 O         142.8340  142.8762  168.7552 O.2     1  UNL1       -0.1532
     21 H         144.8015  141.4480  170.6355 H       1  UNL1        0.1442
     22 H         144.1019  142.9596  170.6271 H       1  UNL1        0.1442
     23 C         141.2962  141.6165  160.3682 C.ar    1  UNL1       -0.0204
     24 C         142.5309  141.0344  159.7466 C.ar    1  UNL1       -0.0041
     25 C         142.6318  140.9083  158.2552 C.ar    1  UNL1        0.0020
     26 C         141.4979  141.3644  157.3857 C.ar    1  UNL1        0.0296
     27 C         140.2631  141.9466  158.0073 C.ar    1  UNL1        0.1398
     28 F         139.1293  142.4027  157.1377 F       1  UNL1       -0.2042
     29 C         140.1623  142.0726  159.4987 C.ar    1  UNL1        0.0254
     30 C         141.3381  143.1880  161.4851 C.3     1  UNL1        0.0215
     31 C         142.5971  143.9298  161.8241 C.3     1  UNL1        0.0723
     32 C         142.6656  143.9108  161.9640 C.3     1  UNL1        0.0893
     33 C         143.6048  142.9578  161.2858 C.3     1  UNL1        0.0386
     34 C         144.6852  142.2801  162.0754 C.3     1  UNL1        0.0594
     35 C         145.5704  141.8546  163.2092 C.3     1  UNL1        0.0174
     36 C         145.1097  142.5637  164.4482 C.3     1  UNL1        0.0174
     37 C         143.9398  143.4273  164.0801 C.3     1  UNL1        0.0594
     38 C         142.8069  144.1859  163.4317 C.3     1  UNL1        0.0386
     39 N         143.6774  143.2521  162.6136 N.3     1  UNL1       -0.2751
     40 C         140.1946  144.9323  163.2075 C.3     1  UNL1        0.0718
     41 C         140.3017  145.1356  161.7252 C.ar    1  UNL1        0.1207
     42 N         139.5219  145.7233  160.5866 N.ar    1  UNL1       -0.2309
     43 C         140.3235  145.5394  159.3321 C.ar    1  UNL1        0.0983
     44 C         140.0569  145.9200  157.9059 C.ar    1  UNL1        0.0206
     45 C         141.0655  145.5993  156.8431 C.ar    1  UNL1        0.0016
     46 C         142.3407  144.8979  157.2064 C.ar    1  UNL1        0.0016
     47 C         142.6073  144.5173  158.6325 C.ar    1  UNL1        0.0188
     48 C         141.5987  144.8381  159.6954 C.ar    1  UNL1        0.0785
     49 N         141.5852  144.5885  161.1744 N.ar    1  UNL1       -0.3167
@<TRIPOS>BOND
     1    40    41    1
     2    41    42   ar
     3    42    43   ar
     4    43    44   ar
     5    44    45   ar
     6    45    46   ar
     7    46    47   ar
     8    47    48   ar
     9    48    49   ar
    10    49    32    1
    11    32    33    1
    12    33    34    1
    13    34    35    1
    14    35    36    1
    15    36    37    1
    16    37    38    1
    17    37    39    1
    18    39    31    1
    19    31    30    1
    20    30     1    1
    21     1    23    1
    22    23    24   ar
    23    24    25   ar
    24    25    26   ar
    25    26    27   ar
    26    27    28    1
    27    27    29   ar
    28     1     2    1
    29     2     3    1
    30     3     4    1
    31     4     5   am
    32     5     6    2
    33     5     9    1
    34     9    10   ar
    35    10    11   ar
    36    11    17    1
    37    17    18    1
    38    17    19    2
    39    17    20    2
    40    11    12   ar
    41    12    13    1
    42    12    14   ar
    43    14    15   ar
    44    15    16    1
    45     4     7    1
    46     7     8    1
    47    49    41   ar
    48    38    32    1
    49     8     1    1
    50    48    43   ar
    51    39    34    1
    52    29    23   ar
    53    15     9   ar
    54    18    21    1
    55    18    22    1
@<TRIPOS>MOLECULE
*****
 49 55 0 0 0
SMALL
GASTEIGER

@<TRIPOS>ATOM
      1 C         140.3499  141.1730  161.9733 C.3     1  UNL1        0.0236
      2 C         140.9994  142.0026  163.0409 C.3     1  UNL1        0.0257
      3 C         140.9871  141.5344  164.4660 C.3     1  UNL1        0.0940
      4 N         140.3252  140.2367  164.8234 N.am    1  UNL1       -0.2760
      5 C         140.3128  139.7686  166.2485 C.2     1  UNL1        0.2512
      6 O         139.6509  138.4709  166.6059 O.2     1  UNL1       -0.2698
      7 C         139.6756  139.4071  163.7558 C.3     1  UNL1        0.0940
      8 C         139.6880  139.8752  162.3308 C.3     1  UNL1        0.0257
      9 C         140.9624  140.5982  167.3160 C.ar    1  UNL1        0.0824
     10 C         140.1184  141.2965  168.3408 C.ar    1  UNL1        0.0275
     11 C         140.7680  142.1261  169.4083 C.ar    1  UNL1        0.1325
     12 C         142.2617  142.2575  169.4511 C.ar    1  UNL1        0.0784
     13 CL        142.9112  143.0872  170.5186 Cl      1  UNL1       -0.0808
     14 C         143.1057  141.5593  168.4263 C.ar    1  UNL1        0.0425
     15 C         142.4560  140.7297  167.3588 C.ar    1  UNL1        0.1454
     16 F         143.3000  140.0314  166.3340 F       1  UNL1       -0.2040
     17 S         139.9241  142.8244  170.4331 S.O2    1  UNL1        0.0580
     18 N         139.0800  143.5226  171.4580 N.3     1  UNL1       -0.2034
     19 O         139.9070  141.5783  171.2680 O.2     1  UNL1       -0.1532
     20 O         139.9412  144.0704  169.5982 O.2     1  UNL1       -0.1532
     21 H         138.8778  142.8819  172.2255 H       1  UNL1        0.1442
     22 H         138.2058  143.8259  171.0290 H       1  UNL1        0.1442
     23 C         139.8726  140.7420  160.6181 C.ar    1  UNL1       -0.0204
     24 C         138.4127  140.8097  160.2806 C.ar    1  UNL1       -0.0041
     25 C         137.9354  140.3787  158.9253 C.ar    1  UNL1        0.0020
     26 C         138.9182  139.8801  157.9077 C.ar    1  UNL1        0.0296
     27 C         140.3782  139.8124  158.2453 C.ar    1  UNL1        0.1398
     28 F         141.3609  139.3138  157.2277 F       1  UNL1       -0.2042
     29 C         140.8553  140.2434  159.6005 C.ar    1  UNL1        0.0254
     30 C         140.8460  142.3210  161.1453 C.3     1  UNL1        0.0215
     31 C         140.2470  143.6852  161.3191 C.3     1  UNL1        0.0723
     32 C         140.2328  143.7515  161.4607 C.3     1  UNL1        0.0893
     33 C         138.8138  143.2651  161.4582 C.3     1  UNL1        0.0386
     34 C         137.9217  143.5488  162.6302 C.3     1  UNL1        0.0594
     35 C         137.4203  144.0427  163.9548 C.3     1  UNL1        0.0174
     36 C         138.5437  144.7681  164.6344 C.3     1  UNL1        0.0174
     37 C         139.7394  144.7225  163.7298 C.3     1  UNL1        0.0594
     38 C         140.7595  144.5215  162.6352 C.3     1  UNL1        0.0386
     39 N         139.3549  143.9689  162.4910 N.3     1  UNL1       -0.2751
     40 C         139.2606  143.8037  158.6772 C.3     1  UNL1        0.0718
     41 C         140.7139  143.4730  158.8461 C.ar    1  UNL1        0.1207
     42 N         141.9197  143.1375  158.0194 N.ar    1  UNL1       -0.2309
     43 C         143.0760  142.9249  158.9510 C.ar    1  UNL1        0.0983
     44 C         144.5126  142.5719  158.7033 C.ar    1  UNL1        0.0206
     45 C         145.4581  142.4229  159.8583 C.ar    1  UNL1        0.0016
     46 C         144.9669  142.6270  161.2608 C.ar    1  UNL1        0.0016
     47 C         143.5302  142.9801  161.5084 C.ar    1  UNL1        0.0188
     48 C         142.5848  143.1291  160.3535 C.ar    1  UNL1        0.0785
     49 N         141.1250  143.4678  160.2886 N.ar    1  UNL1       -0.3167
@<TRIPOS>BOND
     1    40    41    1
     2    41    42   ar
     3    42    43   ar
     4    43    44   ar
     5    44    45   ar
     6    45    46   ar
     7    46    47   ar
     8    47    48   ar
     9    48    49   ar
    10    49    32    1
    11    32    33    1
    12    33    34    1
    13    34    35    1
    14    35    36    1
    15    36    37    1
    16    37    38    1
    17    37    39    1
    18    39    31    1
    19    31    30    1
    20    30     1    1
    21     1    23    1
    22    23    24   ar
    23    24    25   ar
    24    25    26   ar
    25    26    27   ar
    26    27    28    1
    27    27    29   ar
    28     1     2    1
    29     2     3    1
    30     3     4    1
    31     4     5   am
    32     5     6    2
    33     5     9    1
    34     9    10   ar
    35    10    11   ar
    36    11    17    1
    37    17    18    1
    38    17    19    2
    39    17    20    2
    40    11    12   ar
    41    12    13    1
    42    12    14   ar
    43    14    15   ar
    44    15    16    1
    45     4     7    1
    46     7     8    1
    47    49    41   ar
    48    38    32    1
    49     8     1    1
    50    48    43   ar
    51    39    34    1
    52    29    23   ar
    53    15     9   ar
    54    18    21    1
    55    18    22    1
@<TRIPOS>MOLECULE
*****
 49 55 0 0 0
SMALL
GASTEIGER

@<TRIPOS>ATOM
      1 C         141.5641  141.8557  164.9086 C.3     1  UNL1        0.0236
      2 C         141.5024  140.9562  163.7098 C.3     1  UNL1        0.0257
      3 C         141.4982  141.5446  162.3300 C.3     1  UNL1        0.0940
      4 N         141.5556  143.0325  162.1490 N.am    1  UNL1       -0.2760
      5 C         141.5514  143.6210  160.7692 C.2     1  UNL1        0.2512
      6 O         141.6089  145.1089  160.5883 O.2     1  UNL1       -0.2698
      7 C         141.6173  143.9320  163.3478 C.3     1  UNL1        0.0940
      8 C         141.6216  143.3437  164.7275 C.3     1  UNL1        0.0257
      9 C         141.4897  142.7214  159.5705 C.ar    1  UNL1        0.0824
     10 C         140.1652  142.2196  159.0767 C.ar    1  UNL1        0.0275
     11 C         140.1036  141.3200  157.8780 C.ar    1  UNL1        0.1325
     12 C         141.3665  140.9223  157.1730 C.ar    1  UNL1        0.0784
     13 CL        141.3048  140.0227  155.9743 Cl      1  UNL1       -0.0808
     14 C         142.6910  141.4241  157.6668 C.ar    1  UNL1        0.0425
     15 C         142.7526  142.3237  158.8655 C.ar    1  UNL1        0.1454
     16 F         144.0771  142.8256  159.3593 F       1  UNL1       -0.2040
     17 S         138.7791  140.8181  157.3842 S.O2    1  UNL1        0.0580
     18 N         137.4545  140.3162  156.8904 N.3     1  UNL1       -0.2034
     19 O         138.9067  139.6124  158.2673 O.2     1  UNL1       -0.1532
     20 O         138.6515  142.0239  156.5010 O.2     1  UNL1       -0.1532
     21 H         137.2362  139.4295  157.3447 H       1  UNL1        0.1442
     22 H         137.4978  140.1793  155.8806 H       1  UNL1        0.1442
     23 C         141.6116  142.2910  166.3433 C.ar    1  UNL1       -0.0204
     24 C         140.3932  142.8821  166.9884 C.ar    1  UNL1       -0.0041
     25 C         140.4407  143.3174  168.4231 C.ar    1  UNL1        0.0020
     26 C         141.7066  143.1616  169.2126 C.ar    1  UNL1        0.0296
     27 C         142.9250  142.5705  168.5674 C.ar    1  UNL1        0.1398
     28 F         144.1907  142.4147  169.3569 F       1  UNL1       -0.2042
     29 C         142.8774  142.1352  167.1327 C.ar    1  UNL1        0.0254
     30 C         141.5231  140.5190  165.5878 C.3     1  UNL1        0.0215
     31 C         140.2909  139.6684  165.4959 C.3     1  UNL1        0.0723
     32 C         140.2293  139.6300  165.3568 C.3     1  UNL1        0.0893
     33 C         139.2597  140.7555  165.5648 C.3     1  UNL1        0.0386
     34 C         138.2198  141.0514  164.5251 C.3     1  UNL1        0.0594
     35 C         137.3912  140.9841  163.2765 C.3     1  UNL1        0.0174
     36 C         137.9105  139.8554  162.4360 C.3     1  UNL1        0.0174
     37 C         139.0599  139.2252  163.1650 C.3     1  UNL1        0.0594
     38 C         140.1590  138.8006  164.1090 C.3     1  UNL1        0.0386
     39 N         139.2511  139.9644  164.4563 N.3     1  UNL1       -0.2751
     40 C         142.8986  138.5774  164.6766 C.3     1  UNL1        0.0718
     41 C         142.6466  138.7990  166.1386 C.ar    1  UNL1        0.1207
     42 N         143.3429  138.6555  167.4594 N.ar    1  UNL1       -0.2309
     43 C         142.3958  139.1019  168.5336 C.ar    1  UNL1        0.0983
     44 C         142.5349  139.1806  170.0251 C.ar    1  UNL1        0.0206
     45 C         141.3924  139.6788  170.8596 C.ar    1  UNL1        0.0016
     46 C         140.1107  140.0981  170.2026 C.ar    1  UNL1        0.0016
     47 C         139.9717  140.0194  168.7112 C.ar    1  UNL1        0.0188
     48 C         141.1142  139.5213  167.8767 C.ar    1  UNL1        0.0785
     49 N         141.2692  139.3341  166.3965 N.ar    1  UNL1       -0.3167
@<TRIPOS>BOND
     1    40    41    1
     2    41    42   ar
     3    42    43   ar
     4    43    44   ar
     5    44    45   ar
     6    45    46   ar
     7    46    47   ar
     8    47    48   ar
     9    48    49   ar
    10    49    32    1
    11    32    33    1
    12    33    34    1
    13    34    35    1
    14    35    36    1
    15    36    37    1
    16    37    38    1
    17    37    39    1
    18    39    31    1
    19    31    30    1
    20    30     1    1
    21     1    23    1
    22    23    24   ar
    23    24    25   ar
    24    25    26   ar
    25    26    27   ar
    26    27    28    1
    27    27    29   ar
    28     1     2    1
    29     2     3    1
    30     3     4    1
    31     4     5   am
    32     5     6    2
    33     5     9    1
    34     9    10   ar
    35    10    11   ar
    36    11    17    1
    37    17    18    1
    38    17    19    2
    39    17    20    2
    40    11    12   ar
    41    12    13    1
    42    12    14   ar
    43    14    15   ar
    44    15    16    1
    45     4     7    1
    46     7     8    1
    47    49    41   ar
    48    38    32    1
    49     8     1    1
    50    48    43   ar
    51    39    34    1
    52    29    23   ar
    53    15     9   ar
    54    18    21    1
    55    18    22    1
@<TRIPOS>MOLECULE
*****
 49 55 0 0 0
SMALL
GASTEIGER

@<TRIPOS>ATOM
      1 C         140.7507  140.8704  161.4744 C.3     1  UNL1        0.0236
      2 C         141.5766  140.4340  162.6481 C.3     1  UNL1        0.0257
      3 C         141.3694  141.0720  163.9897 C.3     1  UNL1        0.0940
      4 N         140.3363  142.1465  164.1577 N.am    1  UNL1       -0.2760
      5 C         140.1291  142.7845  165.4994 C.2     1  UNL1        0.2512
      6 O         139.0960  143.8589  165.6674 O.2     1  UNL1       -0.2698
      7 C         139.5104  142.5829  162.9841 C.3     1  UNL1        0.0940
      8 C         139.7176  141.9449  161.6425 C.3     1  UNL1        0.0257
      9 C         140.9550  142.3480  166.6730 C.ar    1  UNL1        0.0824
     10 C         140.3118  141.6113  167.8103 C.ar    1  UNL1        0.0275
     11 C         141.1379  141.1749  168.9839 C.ar    1  UNL1        0.1325
     12 C         142.6071  141.4752  169.0200 C.ar    1  UNL1        0.0784
     13 CL        143.4330  141.0387  170.1936 Cl      1  UNL1       -0.0808
     14 C         143.2503  142.2119  167.8827 C.ar    1  UNL1        0.0425
     15 C         142.4242  142.6483  166.7091 C.ar    1  UNL1        0.1454
     16 F         143.0674  143.3850  165.5718 F       1  UNL1       -0.2040
     17 S         140.4947  140.4382  170.1212 S.O2    1  UNL1        0.0580
     18 N         139.8515  139.7014  171.2586 N.3     1  UNL1       -0.2034
     19 O         141.0690  139.1497  169.6114 O.2     1  UNL1       -0.1532
     20 O         139.9204  141.7267  170.6310 O.2     1  UNL1       -0.1532
     21 H         140.0740  138.7084  171.1895 H       1  UNL1        0.1442
     22 H         138.8402  139.8270  171.2165 H       1  UNL1        0.1442
     23 C         140.2195  140.9424  160.0734 C.ar    1  UNL1       -0.0204
     24 C         138.8577  140.3981  159.7588 C.ar    1  UNL1       -0.0041
     25 C         138.3264  140.4701  158.3578 C.ar    1  UNL1        0.0020
     26 C         139.1571  141.0865  157.2716 C.ar    1  UNL1        0.0296
     27 C         140.5190  141.6308  157.5862 C.ar    1  UNL1        0.1398
     28 F         141.3496  142.2472  156.4999 F       1  UNL1       -0.2042
     29 C         141.0501  141.5588  158.9872 C.ar    1  UNL1        0.0254
     30 C         141.5993  139.8210  160.8199 C.3     1  UNL1        0.0215
     31 C         141.4351  138.3792  161.1997 C.3     1  UNL1        0.0723
     32 C         141.4321  138.3340  161.3500 C.3     1  UNL1        0.0893
     33 C         139.9362  138.3375  161.2393 C.3     1  UNL1        0.0386
     34 C         139.0955  137.9652  162.4245 C.3     1  UNL1        0.0594
     35 C         138.6798  137.5434  163.8027 C.3     1  UNL1        0.0174
     36 C         139.9218  137.3244  164.6148 C.3     1  UNL1        0.0174
     37 C         141.1051  137.6109  163.7386 C.3     1  UNL1        0.0594
     38 C         142.0873  137.9583  162.6459 C.3     1  UNL1        0.0386
     39 N         140.5945  138.0069  162.3848 N.3     1  UNL1       -0.2751
     40 C         144.0690  139.6266  161.6181 C.3     1  UNL1        0.0718
     41 C         143.6201  139.3640  160.2112 C.ar    1  UNL1        0.1207
     42 N         144.0936  139.5505  158.8002 N.ar    1  UNL1       -0.2309
     43 C         143.0389  139.0081  157.8817 C.ar    1  UNL1        0.0983
     44 C         142.9579  138.9219  156.3864 C.ar    1  UNL1        0.0206
     45 C         141.7515  138.3140  155.7346 C.ar    1  UNL1        0.0016
     46 C         140.6261  137.7923  156.5780 C.ar    1  UNL1        0.0016
     47 C         140.7071  137.8785  158.0733 C.ar    1  UNL1        0.0188
     48 C         141.9136  138.4864  158.7251 C.ar    1  UNL1        0.0785
     49 N         142.2728  138.7064  160.1648 N.ar    1  UNL1       -0.3167
@<TRIPOS>BOND
     1    40    41    1
     2    41    42   ar
     3    42    43   ar
     4    43    44   ar
     5    44    45   ar
     6    45    46   ar
     7    46    47   ar
     8    47    48   ar
     9    48    49   ar
    10    49    32    1
    11    32    33    1
    12    33    34    1
    13    34    35    1
    14    35    36    1
    15    36    37    1
    16    37    38    1
    17    37    39    1
    18    39    31    1
    19    31    30    1
    20    30     1    1
    21     1    23    1
    22    23    24   ar
    23    24    25   ar
    24    25    26   ar
    25    26    27   ar
    26    27    28    1
    27    27    29   ar
    28     1     2    1
    29     2     3    1
    30     3     4    1
    31     4     5   am
    32     5     6    2
    33     5     9    1
    34     9    10   ar
    35    10    11   ar
    36    11    17    1
    37    17    18    1
    38    17    19    2
    39    17    20    2
    40    11    12   ar
    41    12    13    1
    42    12    14   ar
    43    14    15   ar
    44    15    16    1
    45     4     7    1
    46     7     8    1
    47    49    41   ar
    48    38    32    1
    49     8     1    1
    50    48    43   ar
    51    39    34    1
    52    29    23   ar
    53    15     9   ar
    54    18    21    1
    55    18    22    1
@<TRIPOS>MOLECULE
*****
 49 55 0 0 0
SMALL
GASTEIGER

@<TRIPOS>ATOM
      1 C         141.8983  142.6722  161.5578 C.3     1  UNL1        0.0236
      2 C         141.4160  141.7079  162.6006 C.3     1  UNL1        0.0257
      3 C         141.9565  141.7820  163.9979 C.3     1  UNL1        0.0940
      4 N         142.9793  142.8204  164.3524 N.am    1  UNL1       -0.2760
      5 C         143.5198  142.8944  165.7497 C.2     1  UNL1        0.2512
      6 O         144.5425  143.9328  166.1041 O.2     1  UNL1       -0.2698
      7 C         143.4616  143.7847  163.3095 C.3     1  UNL1        0.0940
      8 C         142.9211  143.7107  161.9123 C.3     1  UNL1        0.0257
      9 C         143.0374  141.9300  166.7924 C.ar    1  UNL1        0.0824
     10 C         142.2940  142.4342  167.9937 C.ar    1  UNL1        0.0275
     11 C         141.8117  141.4697  169.0364 C.ar    1  UNL1        0.1325
     12 C         142.0729  140.0011  168.8778 C.ar    1  UNL1        0.0784
     13 CL        141.5905  139.0368  169.9205 Cl      1  UNL1       -0.0808
     14 C         142.8163  139.4970  167.6765 C.ar    1  UNL1        0.0425
     15 C         143.2986  140.4615  166.6338 C.ar    1  UNL1        0.1454
     16 F         144.0420  139.9574  165.4324 F       1  UNL1       -0.2040
     17 S         141.0683  141.9738  170.2378 S.O2    1  UNL1        0.0580
     18 N         140.3249  142.4780  171.4392 N.3     1  UNL1       -0.2034
     19 O         142.3705  142.2185  170.9409 O.2     1  UNL1       -0.1532
     20 O         139.7661  141.7291  169.5346 O.2     1  UNL1       -0.1532
     21 H         140.9913  142.7491  172.1622 H       1  UNL1        0.1442
     22 H         139.7166  141.7413  171.7964 H       1  UNL1        0.1442
     23 C         142.0428  143.3588  160.2319 C.ar    1  UNL1       -0.0204
     24 C         141.4090  144.6998  160.0087 C.ar    1  UNL1       -0.0041
     25 C         141.5536  145.3864  158.6829 C.ar    1  UNL1        0.0020
     26 C         142.3320  144.7319  157.5803 C.ar    1  UNL1        0.0296
     27 C         142.9658  143.3908  157.8036 C.ar    1  UNL1        0.1398
     28 F         143.7442  142.7363  156.7010 F       1  UNL1       -0.2042
     29 C         142.8212  142.7043  159.1294 C.ar    1  UNL1        0.0254
     30 C         140.9258  141.8723  160.7429 C.3     1  UNL1        0.0215
     31 C         139.4525  142.0017  160.9935 C.3     1  UNL1        0.0723
     32 C         139.3956  141.9845  161.1388 C.3     1  UNL1        0.0893
     33 C         139.3575  143.4821  161.2157 C.3     1  UNL1        0.0386
     34 C         138.8651  144.1569  162.4616 C.3     1  UNL1        0.0594
     35 C         138.3224  144.3847  163.8413 C.3     1  UNL1        0.0174
     36 C         138.0821  143.0450  164.4718 C.3     1  UNL1        0.0174
     37 C         138.4761  141.9893  163.4818 C.3     1  UNL1        0.0594
     38 C         138.9412  141.1618  162.3078 C.3     1  UNL1        0.0386
     39 N         138.9601  142.6765  162.2393 N.3     1  UNL1       -0.2751
     40 C         138.7165  142.9507  158.4368 C.3     1  UNL1        0.0718
     41 C         139.5916  141.7334  158.4848 C.ar    1  UNL1        0.1207
     42 N         140.2837  140.7783  157.5581 N.ar    1  UNL1       -0.2309
     43 C         141.0079  139.7645  158.3934 C.ar    1  UNL1        0.0983
     44 C         141.8584  138.5847  158.0265 C.ar    1  UNL1        0.0206
     45 C         142.4643  137.7334  159.1026 C.ar    1  UNL1        0.0016
     46 C         142.2198  138.0618  160.5456 C.ar    1  UNL1        0.0016
     47 C         141.3693  139.2416  160.9125 C.ar    1  UNL1        0.0188
     48 C         140.7633  140.0930  159.8364 C.ar    1  UNL1        0.0785
     49 N         139.8880  141.3098  159.8929 N.ar    1  UNL1       -0.3167
@<TRIPOS>BOND
     1    40    41    1
     2    41    42   ar
     3    42    43   ar
     4    43    44   ar
     5    44    45   ar
     6    45    46   ar
     7    46    47   ar
     8    47    48   ar
     9    48    49   ar
    10    49    32    1
    11    32    33    1
    12    33    34    1
    13    34    35    1
    14    35    36    1
    15    36    37    1
    16    37    38    1
    17    37    39    1
    18    39    31    1
    19    31    30    1
    20    30     1    1
    21     1    23    1
    22    23    24   ar
    23    24    25   ar
    24    25    26   ar
    25    26    27   ar
    26    27    28    1
    27    27    29   ar
    28     1     2    1
    29     2     3    1
    30     3     4    1
    31     4     5   am
    32     5     6    2
    33     5     9    1
    34     9    10   ar
    35    10    11   ar
    36    11    17    1
    37    17    18    1
    38    17    19    2
    39    17    20    2
    40    11    12   ar
    41    12    13    1
    42    12    14   ar
    43    14    15   ar
    44    15    16    1
    45     4     7    1
    46     7     8    1
    47    49    41   ar
    48    38    32    1
    49     8     1    1
    50    48    43   ar
    51    39    34    1
    52    29    23   ar
    53    15     9   ar
    54    18    21    1
    55    18    22    1
