@<TRIPOS>MOLECULE
*****
 27 28 0 0 0
SMALL
GASTEIGER

@<TRIPOS>ATOM
      1 C         140.0173  139.1691  164.7361 C.ar    1  UNL1        0.1255
      2 C         139.0374  138.1281  164.2824 C.ar    1  UNL1        0.0233
      3 C         138.9191  137.7940  162.8249 C.ar    1  UNL1        0.0383
      4 C         139.7807  138.5010  161.8210 C.ar    1  UNL1        0.1386
      5 C         140.7606  139.5420  162.2747 C.ar    1  UNL1        0.0383
      6 C         140.8789  139.8761  163.7322 C.ar    1  UNL1        0.0233
      7 S         140.1357  139.5032  166.1936 S.O2    1  UNL1        0.0768
      8 O         141.5753  139.0825  166.1731 O.2     1  UNL1       -0.1498
      9 O         138.6960  139.9239  166.2141 O.2     1  UNL1       -0.1498
     10 N         140.8581  141.5264  169.5305 N.am    1  UNL1       -0.2894
     11 C         140.7397  141.1923  168.0730 C.2     1  UNL1        0.3194
     12 O         141.1071  142.2133  167.0373 O.2     1  UNL1       -0.2512
     13 N         140.2540  139.8373  167.6511 N.am    1  UNL1       -0.1693
     14 H         140.6169  140.8563  170.2103 H       1  UNL1        0.1509
     15 H         140.0129  139.1672  168.3309 H       1  UNL1        0.1781
     16 C         140.4087  144.0541  169.9292 C.3     1  UNL1        0.0213
     17 C         141.3438  142.8815  169.9523 C.3     1  UNL1        0.0732
     18 C         142.7646  143.0639  170.3972 C.3     1  UNL1        0.0213
     19 O         139.6623  138.1669  160.3635 O.3     1  UNL1       -0.4754
     20 C         139.0952  139.1735  159.4070 C.3     1  UNL1        0.2068
     21 C         138.0057  140.1024  159.8543 C.3     1  UNL1        0.0646
     22 C         138.3224  141.5354  160.1649 C.3     1  UNL1        0.0759
     23 N         138.1333  142.0605  161.5572 N.3     1  UNL1       -0.2726
     24 C         138.5209  143.4250  162.0452 C.3     1  UNL1        0.0721
     25 C         138.1506  143.5211  163.4956 C.3     1  UNL1        0.0188
     26 C         137.5341  142.2160  163.9040 C.3     1  UNL1        0.0188
     27 C         137.5235  141.3134  162.7061 C.3     1  UNL1        0.0721
@<TRIPOS>BOND
     1    16    17    1
     2    17    18    1
     3    17    10    1
     4    10    11   am
     5    11    12    2
     6    11    13   am
     7    13     7    1
     8     7     8    2
     9     7     9    2
    10     7     1    1
    11     1     2   ar
    12     2     3   ar
    13     3     4   ar
    14     4    19    1
    15    19    20    1
    16    20    21    1
    17    21    22    1
    18    22    23    1
    19    23    24    1
    20    24    25    1
    21    25    26    1
    22    26    27    1
    23     4     5   ar
    24     5     6   ar
    25     6     1   ar
    26    27    23    1
    27    10    14    1
    28    13    15    1
@<TRIPOS>MOLECULE
*****
 27 28 0 0 0
SMALL
GASTEIGER

@<TRIPOS>ATOM
      1 C         141.1961  143.5761  163.5025 C.ar    1  UNL1        0.1255
      2 C         141.8972  142.3107  163.8989 C.ar    1  UNL1        0.0233
      3 C         141.4280  141.5363  165.0948 C.ar    1  UNL1        0.0383
      4 C         140.2576  142.0272  165.8942 C.ar    1  UNL1        0.1386
      5 C         139.5565  143.2926  165.4978 C.ar    1  UNL1        0.0383
      6 C         140.0257  144.0670  164.3020 C.ar    1  UNL1        0.0233
      7 S         141.6654  144.3505  162.3067 S.O2    1  UNL1        0.0768
      8 O         140.8019  145.5066  162.7166 O.2     1  UNL1       -0.1498
      9 O         142.5288  143.1945  161.8968 O.2     1  UNL1       -0.1498
     10 N         141.8860  145.7643  158.6050 N.am    1  UNL1       -0.2894
     11 C         141.4167  144.9898  159.8008 C.2     1  UNL1        0.3194
     12 O         140.2294  144.0802  159.6866 O.2     1  UNL1       -0.2512
     13 N         142.1346  145.1250  161.1109 N.am    1  UNL1       -0.1693
     14 H         142.6652  146.3613  158.6800 H       1  UNL1        0.1509
     15 H         142.9139  145.7220  161.1858 H       1  UNL1        0.1781
     16 C         141.6745  144.6715  156.2574 C.3     1  UNL1        0.0213
     17 C         141.1680  145.6291  157.2949 C.3     1  UNL1        0.0732
     18 C         139.9435  146.4514  157.0224 C.3     1  UNL1        0.0213
     19 O         139.7883  141.2527  167.0900 O.3     1  UNL1       -0.4754
     20 C         139.3718  139.8197  166.9392 C.3     1  UNL1        0.2068
     21 C         138.2436  139.4594  166.0186 C.3     1  UNL1        0.0646
     22 C         138.5338  139.0064  164.6184 C.3     1  UNL1        0.0759
     23 N         138.5322  139.9988  163.4936 N.3     1  UNL1       -0.2726
     24 C         137.5737  141.1403  163.3262 C.3     1  UNL1        0.0721
     25 C         137.9380  141.8709  162.0678 C.3     1  UNL1        0.0188
     26 C         139.1218  141.1808  161.4574 C.3     1  UNL1        0.0188
     27 C         139.4890  140.0238  162.3386 C.3     1  UNL1        0.0721
@<TRIPOS>BOND
     1    16    17    1
     2    17    18    1
     3    17    10    1
     4    10    11   am
     5    11    12    2
     6    11    13   am
     7    13     7    1
     8     7     8    2
     9     7     9    2
    10     7     1    1
    11     1     2   ar
    12     2     3   ar
    13     3     4   ar
    14     4    19    1
    15    19    20    1
    16    20    21    1
    17    21    22    1
    18    22    23    1
    19    23    24    1
    20    24    25    1
    21    25    26    1
    22    26    27    1
    23     4     5   ar
    24     5     6   ar
    25     6     1   ar
    26    27    23    1
    27    10    14    1
    28    13    15    1
@<TRIPOS>MOLECULE
*****
 27 28 0 0 0
SMALL
GASTEIGER

@<TRIPOS>ATOM
      1 C         141.6681  143.7019  162.3566 C.ar    1  UNL1        0.1255
      2 C         141.4673  144.2529  163.7372 C.ar    1  UNL1        0.0233
      3 C         141.3878  143.3231  164.9116 C.ar    1  UNL1        0.0383
      4 C         141.5090  141.8424  164.7054 C.ar    1  UNL1        0.1386
      5 C         141.7098  141.2913  163.3248 C.ar    1  UNL1        0.0383
      6 C         141.7894  142.2211  162.1504 C.ar    1  UNL1        0.0233
      7 S         141.7477  144.6316  161.1822 S.O2    1  UNL1        0.0768
      8 O         142.8787  143.8233  160.6189 O.2     1  UNL1       -0.1498
      9 O         140.6166  145.4400  161.7455 O.2     1  UNL1       -0.1498
     10 N         141.0650  146.2379  157.6180 N.am    1  UNL1       -0.2894
     11 C         140.9855  145.3082  158.7924 C.2     1  UNL1        0.3194
     12 O         140.0641  144.1252  158.7513 O.2     1  UNL1       -0.2512
     13 N         141.8272  145.5614  160.0078 N.am    1  UNL1       -0.1693
     14 H         141.6697  147.0144  157.6449 H       1  UNL1        0.1509
     15 H         142.4319  146.3378  160.0347 H       1  UNL1        0.1781
     16 C         140.5711  144.8627  155.4698 C.3     1  UNL1        0.0213
     17 C         140.2232  145.9847  156.4025 C.3     1  UNL1        0.0732
     18 C         139.0335  146.8534  156.1199 C.3     1  UNL1        0.0213
     19 O         141.4295  140.9126  165.8798 O.3     1  UNL1       -0.4754
     20 C         140.3623  139.8598  165.9320 C.3     1  UNL1        0.2068
     21 C         138.9161  140.2546  165.8815 C.3     1  UNL1        0.0646
     22 C         138.1743  140.2202  164.5781 C.3     1  UNL1        0.0759
     23 N         138.0552  141.4651  163.7499 N.3     1  UNL1       -0.2726
     24 C         137.8063  142.8498  164.2702 C.3     1  UNL1        0.0721
     25 C         137.7613  143.7844  163.0978 C.3     1  UNL1        0.0188
     26 C         137.9823  142.9773  161.8529 C.3     1  UNL1        0.0188
     27 C         138.1640  141.5440  162.2559 C.3     1  UNL1        0.0721
@<TRIPOS>BOND
     1    16    17    1
     2    17    18    1
     3    17    10    1
     4    10    11   am
     5    11    12    2
     6    11    13   am
     7    13     7    1
     8     7     8    2
     9     7     9    2
    10     7     1    1
    11     1     2   ar
    12     2     3   ar
    13     3     4   ar
    14     4    19    1
    15    19    20    1
    16    20    21    1
    17    21    22    1
    18    22    23    1
    19    23    24    1
    20    24    25    1
    21    25    26    1
    22    26    27    1
    23     4     5   ar
    24     5     6   ar
    25     6     1   ar
    26    27    23    1
    27    10    14    1
    28    13    15    1
@<TRIPOS>MOLECULE
*****
 27 28 0 0 0
SMALL
GASTEIGER

@<TRIPOS>ATOM
      1 C         140.7360  143.8176  162.6539 C.ar    1  UNL1        0.1255
      2 C         140.5052  142.3416  162.5188 C.ar    1  UNL1        0.0233
      3 C         140.0393  141.5441  163.7007 C.ar    1  UNL1        0.0383
      4 C         139.8042  142.2224  165.0177 C.ar    1  UNL1        0.1386
      5 C         140.0350  143.6984  165.1528 C.ar    1  UNL1        0.0383
      6 C         140.5009  144.4959  163.9709 C.ar    1  UNL1        0.0233
      7 S         141.2019  144.6151  161.4720 S.O2    1  UNL1        0.0768
      8 O         140.4061  145.7923  161.9527 O.2     1  UNL1       -0.1498
      9 O         141.9976  143.4380  160.9913 O.2     1  UNL1       -0.1498
     10 N         141.3649  146.1625  157.8212 N.am    1  UNL1       -0.2894
     11 C         140.8990  145.3650  159.0030 C.2     1  UNL1        0.3194
     12 O         139.6643  144.5197  158.8977 O.2     1  UNL1       -0.2512
     13 N         141.6678  145.4127  160.2901 N.am    1  UNL1       -0.1693
     14 H         142.1753  146.7173  157.8902 H       1  UNL1        0.1509
     15 H         142.4782  145.9675  160.3592 H       1  UNL1        0.1781
     16 C         139.4028  147.0026  156.3398 C.3     1  UNL1        0.0213
     17 C         140.5961  146.1148  156.5340 C.3     1  UNL1        0.0732
     18 C         141.0206  145.1793  155.4411 C.3     1  UNL1        0.0213
     19 O         139.3383  141.4249  166.1995 O.3     1  UNL1       -0.4754
     20 C         139.6235  139.9541  166.2713 C.3     1  UNL1        0.2068
     21 C         138.5180  138.9641  166.0527 C.3     1  UNL1        0.0646
     22 C         138.7664  137.7307  165.2359 C.3     1  UNL1        0.0759
     23 N         139.3171  137.8500  163.8458 N.3     1  UNL1       -0.2726
     24 C         140.7529  137.6759  163.4483 C.3     1  UNL1        0.0721
     25 C         140.8519  137.8828  161.9659 C.3     1  UNL1        0.0188
     26 C         139.4772  138.1847  161.4472 C.3     1  UNL1        0.0188
     27 C         138.5287  138.1645  162.6091 C.3     1  UNL1        0.0721
@<TRIPOS>BOND
     1    16    17    1
     2    17    18    1
     3    17    10    1
     4    10    11   am
     5    11    12    2
     6    11    13   am
     7    13     7    1
     8     7     8    2
     9     7     9    2
    10     7     1    1
    11     1     2   ar
    12     2     3   ar
    13     3     4   ar
    14     4    19    1
    15    19    20    1
    16    20    21    1
    17    21    22    1
    18    22    23    1
    19    23    24    1
    20    24    25    1
    21    25    26    1
    22    26    27    1
    23     4     5   ar
    24     5     6   ar
    25     6     1   ar
    26    27    23    1
    27    10    14    1
    28    13    15    1
@<TRIPOS>MOLECULE
*****
 27 28 0 0 0
SMALL
GASTEIGER

@<TRIPOS>ATOM
      1 C         142.3651  143.6618  163.9178 C.ar    1  UNL1        0.1255
      2 C         141.1672  143.0189  164.5517 C.ar    1  UNL1        0.0233
      3 C         141.3202  142.2369  165.8225 C.ar    1  UNL1        0.0383
      4 C         142.6711  142.0977  166.4595 C.ar    1  UNL1        0.1386
      5 C         143.8690  142.7405  165.8256 C.ar    1  UNL1        0.0383
      6 C         143.7160  143.5226  164.5548 C.ar    1  UNL1        0.0233
      7 S         142.2121  144.4438  162.6470 S.O2    1  UNL1        0.0768
      8 O         143.6863  144.3255  162.3967 O.2     1  UNL1       -0.1498
      9 O         140.7379  144.5621  162.8973 O.2     1  UNL1       -0.1498
     10 N         141.6147  145.2964  158.8174 N.am    1  UNL1       -0.2894
     11 C         141.7677  144.5144  160.0882 C.2     1  UNL1        0.3194
     12 O         141.6293  143.0208  160.0710 O.2     1  UNL1       -0.2512
     13 N         142.0591  145.2258  161.3762 N.am    1  UNL1       -0.1693
     14 H         141.7055  146.2767  158.8286 H       1  UNL1        0.1509
     15 H         142.1499  146.2061  161.3874 H       1  UNL1        0.1781
     16 C         142.4498  144.0426  156.7006 C.3     1  UNL1        0.0213
     17 C         141.3233  144.5849  157.5293 C.3     1  UNL1        0.0732
     18 C         139.9054  144.4157  157.0702 C.3     1  UNL1        0.0213
     19 O         142.8241  141.3157  167.7303 O.3     1  UNL1       -0.4754
     20 C         142.4496  139.8637  167.7671 C.3     1  UNL1        0.2068
     21 C         143.1951  138.8751  166.9204 C.3     1  UNL1        0.0646
     22 C         142.7033  138.5471  165.5417 C.3     1  UNL1        0.0759
     23 N         143.2414  139.2924  164.3564 N.3     1  UNL1       -0.2726
     24 C         144.6788  139.6481  164.1168 C.3     1  UNL1        0.0721
     25 C         144.7624  140.3883  162.8149 C.3     1  UNL1        0.0188
     26 C         143.3766  140.4901  162.2498 C.3     1  UNL1        0.0188
     27 C         142.4366  139.8128  163.2025 C.3     1  UNL1        0.0721
@<TRIPOS>BOND
     1    16    17    1
     2    17    18    1
     3    17    10    1
     4    10    11   am
     5    11    12    2
     6    11    13   am
     7    13     7    1
     8     7     8    2
     9     7     9    2
    10     7     1    1
    11     1     2   ar
    12     2     3   ar
    13     3     4   ar
    14     4    19    1
    15    19    20    1
    16    20    21    1
    17    21    22    1
    18    22    23    1
    19    23    24    1
    20    24    25    1
    21    25    26    1
    22    26    27    1
    23     4     5   ar
    24     5     6   ar
    25     6     1   ar
    26    27    23    1
    27    10    14    1
    28    13    15    1
@<TRIPOS>MOLECULE
*****
 27 28 0 0 0
SMALL
GASTEIGER

@<TRIPOS>ATOM
      1 C         141.4976  143.6351  161.9576 C.ar    1  UNL1        0.1255
      2 C         142.2060  143.8928  163.2545 C.ar    1  UNL1        0.0233
      3 C         142.1061  142.8993  164.3739 C.ar    1  UNL1        0.0383
      4 C         141.2980  141.6482  164.1965 C.ar    1  UNL1        0.1386
      5 C         140.5897  141.3905  162.8996 C.ar    1  UNL1        0.0383
      6 C         140.6895  142.3840  161.7802 C.ar    1  UNL1        0.0233
      7 S         141.5975  144.6286  160.8382 S.O2    1  UNL1        0.0768
      8 O         140.3961  145.3508  161.3721 O.2     1  UNL1       -0.1498
      9 O         142.7988  143.9063  160.3044 O.2     1  UNL1       -0.1498
     10 N         141.0456  146.3841  157.3221 N.am    1  UNL1       -0.2894
     11 C         140.9458  145.3906  158.4415 C.2     1  UNL1        0.3194
     12 O         140.0944  144.1657  158.2835 O.2     1  UNL1       -0.2512
     13 N         141.6973  145.6220  159.7188 N.am    1  UNL1       -0.1693
     14 H         141.6044  147.1880  157.4257 H       1  UNL1        0.1509
     15 H         142.2560  146.4259  159.8225 H       1  UNL1        0.1781
     16 C         138.9751  146.8298  155.8173 C.3     1  UNL1        0.0213
     17 C         140.2941  146.1526  156.0446 C.3     1  UNL1        0.0732
     18 C         140.8616  145.2441  154.9947 C.3     1  UNL1        0.0213
     19 O         141.1982  140.6547  165.3159 O.3     1  UNL1       -0.4754
     20 C         141.2525  139.1850  165.0213 C.3     1  UNL1        0.2068
     21 C         142.5768  138.5066  164.8311 C.3     1  UNL1        0.0646
     22 C         143.3129  138.6496  163.5320 C.3     1  UNL1        0.0759
     23 N         144.1476  139.8687  163.2732 N.3     1  UNL1       -0.2726
     24 C         145.1358  140.4785  164.2227 C.3     1  UNL1        0.0721
     25 C         145.7396  141.6788  163.5558 C.3     1  UNL1        0.0188
     26 C         145.1246  141.8108  162.1941 C.3     1  UNL1        0.0188
     27 C         144.1407  140.6922  162.0194 C.3     1  UNL1        0.0721
@<TRIPOS>BOND
     1    16    17    1
     2    17    18    1
     3    17    10    1
     4    10    11   am
     5    11    12    2
     6    11    13   am
     7    13     7    1
     8     7     8    2
     9     7     9    2
    10     7     1    1
    11     1     2   ar
    12     2     3   ar
    13     3     4   ar
    14     4    19    1
    15    19    20    1
    16    20    21    1
    17    21    22    1
    18    22    23    1
    19    23    24    1
    20    24    25    1
    21    25    26    1
    22    26    27    1
    23     4     5   ar
    24     5     6   ar
    25     6     1   ar
    26    27    23    1
    27    10    14    1
    28    13    15    1
@<TRIPOS>MOLECULE
*****
 27 28 0 0 0
SMALL
GASTEIGER

@<TRIPOS>ATOM
      1 C         140.7896  143.8704  162.5706 C.ar    1  UNL1        0.1255
      2 C         140.6986  144.5228  163.9182 C.ar    1  UNL1        0.0233
      3 C         140.2565  143.7254  165.1093 C.ar    1  UNL1        0.0383
      4 C         139.9052  142.2756  164.9527 C.ar    1  UNL1        0.1386
      5 C         139.9962  141.6231  163.6051 C.ar    1  UNL1        0.0383
      6 C         140.4383  142.4206  162.4141 C.ar    1  UNL1        0.0233
      7 S         141.2318  144.6678  161.3796 S.O2    1  UNL1        0.0768
      8 O         140.3957  145.8237  161.8431 O.2     1  UNL1       -0.1498
      9 O         142.0679  143.5119  160.9161 O.2     1  UNL1       -0.1498
     10 N         141.3332  146.1991  157.7197 N.am    1  UNL1       -0.2894
     11 C         140.8910  145.4017  158.9107 C.2     1  UNL1        0.3194
     12 O         139.6658  144.5406  158.8239 O.2     1  UNL1       -0.2512
     13 N         141.6740  145.4653  160.1886 N.am    1  UNL1       -0.1693
     14 H         142.1373  146.7642  157.7767 H       1  UNL1        0.1509
     15 H         142.4781  146.0304  160.2455 H       1  UNL1        0.1781
     16 C         140.9537  145.1757  155.3620 C.3     1  UNL1        0.0213
     17 C         140.5502  146.1354  156.4418 C.3     1  UNL1        0.0732
     18 C         139.3637  147.0315  156.2438 C.3     1  UNL1        0.0213
     19 O         139.4630  141.4781  166.1438 O.3     1  UNL1       -0.4754
     20 C         140.4804  140.7949  167.0086 C.3     1  UNL1        0.2068
     21 C         141.3912  139.7589  166.4195 C.3     1  UNL1        0.0646
     22 C         142.8620  140.0308  166.3056 C.3     1  UNL1        0.0759
     23 N         143.3454  141.2450  165.5693 N.3     1  UNL1       -0.2726
     24 C         143.6285  141.3297  164.0987 C.3     1  UNL1        0.0721
     25 C         144.0886  142.7247  163.7948 C.3     1  UNL1        0.0188
     26 C         144.0900  143.5021  165.0776 C.3     1  UNL1        0.0188
     27 C         143.6307  142.5876  166.1743 C.3     1  UNL1        0.0721
@<TRIPOS>BOND
     1    16    17    1
     2    17    18    1
     3    17    10    1
     4    10    11   am
     5    11    12    2
     6    11    13   am
     7    13     7    1
     8     7     8    2
     9     7     9    2
    10     7     1    1
    11     1     2   ar
    12     2     3   ar
    13     3     4   ar
    14     4    19    1
    15    19    20    1
    16    20    21    1
    17    21    22    1
    18    22    23    1
    19    23    24    1
    20    24    25    1
    21    25    26    1
    22    26    27    1
    23     4     5   ar
    24     5     6   ar
    25     6     1   ar
    26    27    23    1
    27    10    14    1
    28    13    15    1
@<TRIPOS>MOLECULE
*****
 27 28 0 0 0
SMALL
GASTEIGER

@<TRIPOS>ATOM
      1 C         138.4229  139.2760  163.5624 C.ar    1  UNL1        0.1255
      2 C         138.7891  138.0287  162.8142 C.ar    1  UNL1        0.0233
      3 C         138.8374  138.0403  161.3150 C.ar    1  UNL1        0.0383
      4 C         138.5193  139.2992  160.5641 C.ar    1  UNL1        0.1386
      5 C         138.1531  140.5465  161.3123 C.ar    1  UNL1        0.0383
      6 C         138.1049  140.5350  162.8115 C.ar    1  UNL1        0.0233
      7 S         138.3747  139.2645  165.0616 S.O2    1  UNL1        0.0768
      8 O         138.8102  137.8291  165.0645 O.2     1  UNL1       -0.1498
      9 O         137.9391  140.6999  165.0587 O.2     1  UNL1       -0.1498
     10 N         139.4332  139.7791  168.8517 N.am    1  UNL1       -0.2894
     11 C         139.4814  139.7906  167.3525 C.2     1  UNL1        0.3194
     12 O         140.6847  140.3400  166.6450 O.2     1  UNL1       -0.2512
     13 N         138.3265  139.2529  166.5608 N.am    1  UNL1       -0.1693
     14 H         138.6435  139.4185  169.3160 H       1  UNL1        0.1509
     15 H         137.5367  138.8924  167.0251 H       1  UNL1        0.1781
     16 C         140.5690  141.7361  170.1284 C.3     1  UNL1        0.0213
     17 C         140.5883  140.3168  169.6434 C.3     1  UNL1        0.0732
     18 C         141.7625  139.4353  169.9500 C.3     1  UNL1        0.0213
     19 O         138.5676  139.3108  159.0649 O.3     1  UNL1       -0.4754
     20 C         139.8837  139.1883  158.3559 C.3     1  UNL1        0.2068
     21 C         141.0978  139.8782  158.9037 C.3     1  UNL1        0.0646
     22 C         142.1351  139.0915  159.6488 C.3     1  UNL1        0.0759
     23 N         142.1819  139.1424  161.1472 N.3     1  UNL1       -0.2726
     24 C         142.5407  138.0053  162.0573 C.3     1  UNL1        0.0721
     25 C         142.4586  138.4995  163.4712 C.3     1  UNL1        0.0188
     26 C         142.0491  139.9420  163.4350 C.3     1  UNL1        0.0188
     27 C         141.8781  140.3394  161.9987 C.3     1  UNL1        0.0721
@<TRIPOS>BOND
     1    16    17    1
     2    17    18    1
     3    17    10    1
     4    10    11   am
     5    11    12    2
     6    11    13   am
     7    13     7    1
     8     7     8    2
     9     7     9    2
    10     7     1    1
    11     1     2   ar
    12     2     3   ar
    13     3     4   ar
    14     4    19    1
    15    19    20    1
    16    20    21    1
    17    21    22    1
    18    22    23    1
    19    23    24    1
    20    24    25    1
    21    25    26    1
    22    26    27    1
    23     4     5   ar
    24     5     6   ar
    25     6     1   ar
    26    27    23    1
    27    10    14    1
    28    13    15    1
@<TRIPOS>MOLECULE
*****
 27 28 0 0 0
SMALL
GASTEIGER

@<TRIPOS>ATOM
      1 C         140.7451  139.2426  164.5568 C.ar    1  UNL1        0.1255
      2 C         141.1122  137.8566  164.1163 C.ar    1  UNL1        0.0233
      3 C         141.2042  137.5339  162.6543 C.ar    1  UNL1        0.0383
      4 C         140.9290  138.5973  161.6328 C.ar    1  UNL1        0.1386
      5 C         140.5618  139.9833  162.0733 C.ar    1  UNL1        0.0383
      6 C         140.4699  140.3060  163.5353 C.ar    1  UNL1        0.0233
      7 S         140.6532  139.5653  166.0188 S.O2    1  UNL1        0.0768
      8 O         139.2790  140.1284  165.8081 O.2     1  UNL1       -0.1498
      9 O         142.0274  139.0021  166.2295 O.2     1  UNL1       -0.1498
     10 N         140.9268  141.5475  169.4460 N.am    1  UNL1       -0.2894
     11 C         141.0188  141.2249  167.9840 C.2     1  UNL1        0.3194
     12 O         141.5682  142.2392  167.0252 O.2     1  UNL1       -0.2512
     13 N         140.5613  139.8879  167.4808 N.am    1  UNL1       -0.1693
     14 H         140.5663  140.8818  170.0753 H       1  UNL1        0.1509
     15 H         140.2007  139.2222  168.1101 H       1  UNL1        0.1781
     16 C         142.7800  143.0513  170.4729 C.3     1  UNL1        0.0213
     17 C         141.3843  142.8846  169.9492 C.3     1  UNL1        0.0732
     18 C         140.4462  144.0548  169.9286 C.3     1  UNL1        0.0213
     19 O         141.0209  138.2746  160.1708 O.3     1  UNL1       -0.4754
     20 C         142.2375  138.6741  159.3897 C.3     1  UNL1        0.2068
     21 C         143.5355  138.9238  160.0987 C.3     1  UNL1        0.0646
     22 C         143.8842  140.3080  160.5596 C.3     1  UNL1        0.0759
     23 N         144.4441  140.5219  161.9346 N.3     1  UNL1       -0.2726
     24 C         144.3267  139.5745  163.0916 C.3     1  UNL1        0.0721
     25 C         145.0298  140.1877  164.2662 C.3     1  UNL1        0.0188
     26 C         145.5818  141.5142  163.8351 C.3     1  UNL1        0.0188
     27 C         145.2198  141.7207  162.3941 C.3     1  UNL1        0.0721
@<TRIPOS>BOND
     1    16    17    1
     2    17    18    1
     3    17    10    1
     4    10    11   am
     5    11    12    2
     6    11    13   am
     7    13     7    1
     8     7     8    2
     9     7     9    2
    10     7     1    1
    11     1     2   ar
    12     2     3   ar
    13     3     4   ar
    14     4    19    1
    15    19    20    1
    16    20    21    1
    17    21    22    1
    18    22    23    1
    19    23    24    1
    20    24    25    1
    21    25    26    1
    22    26    27    1
    23     4     5   ar
    24     5     6   ar
    25     6     1   ar
    26    27    23    1
    27    10    14    1
    28    13    15    1
