@<TRIPOS>MOLECULE
*****
 29 34 0 0 0
SMALL
GASTEIGER

@<TRIPOS>ATOM
      1 N         138.7074  145.3113  165.8220 N.pl3   1  UNL1       -0.3133
      2 C         138.4565  144.1240  164.9404 C.2     1  UNL1        0.2770
      3 N         139.0243  142.7486  165.1309 N.2     1  UNL1       -0.2202
      4 C         138.5124  141.8782  164.0219 C.3     1  UNL1        0.1580
      5 C         137.6283  142.7155  163.1459 C.3     1  UNL1        0.2351
      6 O         137.5937  144.1035  163.7136 O.2     1  UNL1       -0.4478
      7 C         139.4179  141.1696  164.9852 C.ar    1  UNL1        0.0357
      8 C         140.0068  141.9138  166.1468 C.ar    1  UNL1        0.0007
      9 C         140.9123  141.2053  167.1102 C.ar    1  UNL1        0.0014
     10 C         141.2290  139.7525  166.9118 C.ar    1  UNL1        0.0031
     11 C         140.6401  139.0083  165.7502 C.ar    1  UNL1        0.0366
     12 C         139.7345  139.7169  164.7868 C.ar    1  UNL1        0.1360
     13 O         139.1457  138.9728  163.6252 O.3     1  UNL1       -0.4826
     14 C         138.2402  139.6813  162.6619 C.3     1  UNL1        0.1395
     15 C         138.3227  138.2727  162.1527 C.3     1  UNL1        0.0404
     16 C         137.4074  138.6289  161.0190 C.3     1  UNL1        0.0072
     17 C         137.3248  140.0375  161.5281 C.3     1  UNL1        0.0404
     18 C         137.9236  141.1340  162.8602 C.3     1  UNL1        0.1141
     19 C         138.1762  140.9363  163.1289 C.3     1  UNL1        0.1501
     20 O         137.9107  141.1441  162.8465 O.3     1  UNL1       -0.3532
     21 C         138.1762  140.9363  163.1289 C.3     1  UNL1        0.1501
     22 H         139.2923  145.2251  166.6092 H       1  UNL1        0.1466
     23 H         138.2872  146.1769  165.6134 H       1  UNL1        0.1466
     24 C         141.5011  141.9494  168.2718 C.ar    1  UNL1        0.0192
     25 C         142.9194  141.6916  168.6865 C.ar    1  UNL1        0.0031
     26 C         143.5083  142.4358  169.8482 C.ar    1  UNL1        0.0207
     27 C         142.6789  143.4378  170.5951 C.ar    1  UNL1        0.0989
     28 N         141.2605  143.6957  170.1805 N.ar    1  UNL1       -0.2423
     29 C         140.6717  142.9515  169.0188 C.ar    1  UNL1        0.0988
@<TRIPOS>BOND
     1     1     2    1
     2     2     3    2
     3     3     4    1
     4     4     5    1
     5     5     6    1
     6     4     7    1
     7     7     8   ar
     8     8     9   ar
     9     9    24    1
    10    24    25   ar
    11    25    26   ar
    12    26    27   ar
    13    27    28   ar
    14    28    29   ar
    15     9    10   ar
    16    10    11   ar
    17    11    12   ar
    18    12    13    1
    19    13    14    1
    20    14    15    1
    21    15    16    1
    22    16    17    1
    23    14    18    1
    24    18    19    1
    25    19    20    1
    26    20    21    1
    27     6     2    1
    28    12     7   ar
    29    17    14    1
    30    21    18    1
    31    18     4    1
    32    29    24   ar
    33     1    22    1
    34     1    23    1
@<TRIPOS>MOLECULE
*****
 29 34 0 0 0
SMALL
GASTEIGER

@<TRIPOS>ATOM
      1 N         137.6723  138.3383  166.6350 N.pl3   1  UNL1       -0.3133
      2 C         138.7376  138.2498  165.5827 C.2     1  UNL1        0.2770
      3 N         139.9964  139.0641  165.5317 N.2     1  UNL1       -0.2202
      4 C         140.7680  138.6490  164.3143 C.3     1  UNL1        0.1580
      5 C         139.9860  137.5782  163.6128 C.3     1  UNL1        0.2351
      6 O         138.7312  137.3315  164.3968 O.2     1  UNL1       -0.4478
      7 C         141.4341  139.7232  165.1219 C.ar    1  UNL1        0.0357
      8 C         140.7789  140.2396  166.3685 C.ar    1  UNL1        0.0007
      9 C         141.4451  141.3138  167.1761 C.ar    1  UNL1        0.0014
     10 C         142.7666  141.8716  166.7372 C.ar    1  UNL1        0.0031
     11 C         143.4218  141.3552  165.4906 C.ar    1  UNL1        0.0366
     12 C         142.7555  140.2809  164.6830 C.ar    1  UNL1        0.1360
     13 O         143.4108  139.7645  163.4364 O.3     1  UNL1       -0.4826
     14 C         142.7446  138.6904  162.6287 C.3     1  UNL1        0.1395
     15 C         144.0194  138.9915  161.8977 C.3     1  UNL1        0.0404
     16 C         143.6712  137.9600  160.8657 C.3     1  UNL1        0.0072
     17 C         142.3964  137.6589  161.5967 C.3     1  UNL1        0.0404
     18 C         141.4232  138.1326  163.0677 C.3     1  UNL1        0.1141
     19 C         141.6091  138.4323  163.2930 C.3     1  UNL1        0.1501
     20 O         141.4137  138.1173  163.0562 O.3     1  UNL1       -0.3532
     21 C         141.6091  138.4323  163.2930 C.3     1  UNL1        0.1501
     22 H         137.7671  138.9760  167.3790 H       1  UNL1        0.1466
     23 H         136.8783  137.7587  166.5816 H       1  UNL1        0.1466
     24 C         140.7899  141.8302  168.4227 C.ar    1  UNL1        0.0192
     25 C         141.0256  143.2445  168.8632 C.ar    1  UNL1        0.0031
     26 C         140.3704  143.7609  170.1098 C.ar    1  UNL1        0.0207
     27 C         139.4794  142.8630  170.9159 C.ar    1  UNL1        0.0989
     28 N         139.2437  141.4486  170.4755 N.ar    1  UNL1       -0.2423
     29 C         139.8989  140.9322  169.2289 C.ar    1  UNL1        0.0988
@<TRIPOS>BOND
     1     1     2    1
     2     2     3    2
     3     3     4    1
     4     4     5    1
     5     5     6    1
     6     4     7    1
     7     7     8   ar
     8     8     9   ar
     9     9    24    1
    10    24    25   ar
    11    25    26   ar
    12    26    27   ar
    13    27    28   ar
    14    28    29   ar
    15     9    10   ar
    16    10    11   ar
    17    11    12   ar
    18    12    13    1
    19    13    14    1
    20    14    15    1
    21    15    16    1
    22    16    17    1
    23    14    18    1
    24    18    19    1
    25    19    20    1
    26    20    21    1
    27     6     2    1
    28    12     7   ar
    29    17    14    1
    30    21    18    1
    31    18     4    1
    32    29    24   ar
    33     1    22    1
    34     1    23    1
@<TRIPOS>MOLECULE
*****
 29 34 0 0 0
SMALL
GASTEIGER

@<TRIPOS>ATOM
      1 N         144.5091  143.5701  166.2249 N.pl3   1  UNL1       -0.3133
      2 C         144.3064  142.5463  165.1475 C.2     1  UNL1        0.2770
      3 N         143.2020  141.5328  165.0908 N.2     1  UNL1       -0.2202
      4 C         143.3855  140.7164  163.8460 C.3     1  UNL1        0.1580
      5 C         144.6034  141.2254  163.1333 C.3     1  UNL1        0.2351
      6 O         145.1725  142.3563  163.9377 O.2     1  UNL1       -0.4478
      7 C         142.1956  140.3174  164.6673 C.ar    1  UNL1        0.0357
      8 C         141.8854  141.0456  165.9415 C.ar    1  UNL1        0.0007
      9 C         140.6954  140.6466  166.7628 C.ar    1  UNL1        0.0014
     10 C         139.8156  139.5192  166.3101 C.ar    1  UNL1        0.0031
     11 C         140.1257  138.7909  165.0359 C.ar    1  UNL1        0.0366
     12 C         141.3158  139.1900  164.2146 C.ar    1  UNL1        0.1360
     13 O         141.6260  138.4617  162.9404 O.3     1  UNL1       -0.4826
     14 C         142.8159  138.8608  162.1191 C.3     1  UNL1        0.1395
     15 C         142.1903  137.7226  161.3686 C.3     1  UNL1        0.0404
     16 C         143.2546  137.8308  160.3171 C.3     1  UNL1        0.0072
     17 C         143.8803  138.9690  161.0676 C.3     1  UNL1        0.0404
     18 C         143.6957  139.9881  162.5718 C.3     1  UNL1        0.1141
     19 C         143.3637  139.8768  162.8010 C.3     1  UNL1        0.1501
     20 O         143.7127  139.9938  162.5601 O.3     1  UNL1       -0.3532
     21 C         143.3637  139.8768  162.8010 C.3     1  UNL1        0.1501
     22 H         143.8834  143.6168  166.9836 H       1  UNL1        0.1466
     23 H         145.2678  144.1953  166.1734 H       1  UNL1        0.1466
     24 C         140.3852  141.3749  168.0369 C.ar    1  UNL1        0.0192
     25 C         140.7313  142.8280  168.1736 C.ar    1  UNL1        0.0031
     26 C         140.4211  143.5562  169.4477 C.ar    1  UNL1        0.0207
     27 C         139.7649  142.8314  170.5852 C.ar    1  UNL1        0.0989
     28 N         139.4188  141.3782  170.4486 N.ar    1  UNL1       -0.2423
     29 C         139.7290  140.6500  169.1745 C.ar    1  UNL1        0.0988
@<TRIPOS>BOND
     1     1     2    1
     2     2     3    2
     3     3     4    1
     4     4     5    1
     5     5     6    1
     6     4     7    1
     7     7     8   ar
     8     8     9   ar
     9     9    24    1
    10    24    25   ar
    11    25    26   ar
    12    26    27   ar
    13    27    28   ar
    14    28    29   ar
    15     9    10   ar
    16    10    11   ar
    17    11    12   ar
    18    12    13    1
    19    13    14    1
    20    14    15    1
    21    15    16    1
    22    16    17    1
    23    14    18    1
    24    18    19    1
    25    19    20    1
    26    20    21    1
    27     6     2    1
    28    12     7   ar
    29    17    14    1
    30    21    18    1
    31    18     4    1
    32    29    24   ar
    33     1    22    1
    34     1    23    1
@<TRIPOS>MOLECULE
*****
 29 34 0 0 0
SMALL
GASTEIGER

@<TRIPOS>ATOM
      1 N         144.0514  140.4566  161.9834 N.pl3   1  UNL1       -0.3133
      2 C         143.7355  140.1881  163.4250 C.2     1  UNL1        0.2770
      3 N         142.7594  140.9512  164.2707 N.2     1  UNL1       -0.2202
      4 C         142.7608  140.3441  165.6422 C.3     1  UNL1        0.1580
      5 C         143.7376  139.2057  165.6443 C.3     1  UNL1        0.2351
      6 O         144.3400  139.1093  164.2739 O.2     1  UNL1       -0.4478
      7 C         141.8224  141.5043  165.4895 C.ar    1  UNL1        0.0357
      8 C         141.7137  142.2126  164.1717 C.ar    1  UNL1        0.0007
      9 C         140.7753  143.3728  164.0190 C.ar    1  UNL1        0.0014
     10 C         139.9455  143.8247  165.1841 C.ar    1  UNL1        0.0031
     11 C         140.0542  143.1163  166.5018 C.ar    1  UNL1        0.0366
     12 C         140.9927  141.9561  166.6545 C.ar    1  UNL1        0.1360
     13 O         141.1013  141.2478  167.9723 O.3     1  UNL1       -0.4826
     14 C         142.0397  140.0876  168.1250 C.3     1  UNL1        0.1395
     15 C         141.3947  140.2449  169.4701 C.3     1  UNL1        0.0404
     16 C         142.1934  139.0859  169.9887 C.3     1  UNL1        0.0072
     17 C         142.8384  138.9286  168.6436 C.3     1  UNL1        0.0404
     18 C         142.8694  139.6358  166.9600 C.3     1  UNL1        0.1141
     19 C         142.6077  139.9594  166.9174 C.3     1  UNL1        0.1501
     20 O         142.8828  139.6193  166.9622 O.3     1  UNL1       -0.3532
     21 C         142.6077  139.9594  166.9174 C.3     1  UNL1        0.1501
     22 H         143.5999  141.1917  161.5092 H       1  UNL1        0.1466
     23 H         144.7103  139.8977  161.5115 H       1  UNL1        0.1466
     24 C         140.6667  144.0811  162.7012 C.ar    1  UNL1        0.0192
     25 C         141.5718  143.6994  161.5677 C.ar    1  UNL1        0.0031
     26 C         141.4632  144.4077  160.2500 C.ar    1  UNL1        0.0207
     27 C         140.4494  145.4977  160.0657 C.ar    1  UNL1        0.0989
     28 N         139.5441  145.8795  161.1993 N.ar    1  UNL1       -0.2423
     29 C         139.6528  145.1711  162.5171 C.ar    1  UNL1        0.0988
@<TRIPOS>BOND
     1     1     2    1
     2     2     3    2
     3     3     4    1
     4     4     5    1
     5     5     6    1
     6     4     7    1
     7     7     8   ar
     8     8     9   ar
     9     9    24    1
    10    24    25   ar
    11    25    26   ar
    12    26    27   ar
    13    27    28   ar
    14    28    29   ar
    15     9    10   ar
    16    10    11   ar
    17    11    12   ar
    18    12    13    1
    19    13    14    1
    20    14    15    1
    21    15    16    1
    22    16    17    1
    23    14    18    1
    24    18    19    1
    25    19    20    1
    26    20    21    1
    27     6     2    1
    28    12     7   ar
    29    17    14    1
    30    21    18    1
    31    18     4    1
    32    29    24   ar
    33     1    22    1
    34     1    23    1
@<TRIPOS>MOLECULE
*****
 29 34 0 0 0
SMALL
GASTEIGER

@<TRIPOS>ATOM
      1 N         137.7590  140.9262  163.7801 N.pl3   1  UNL1       -0.3133
      2 C         138.5689  140.6921  165.0208 C.2     1  UNL1        0.2770
      3 N         139.9121  141.2878  165.3225 N.2     1  UNL1       -0.2202
      4 C         140.3511  140.7850  166.6657 C.3     1  UNL1        0.1580
      5 C         139.2792  139.8785  167.1942 C.3     1  UNL1        0.2351
      6 O         138.1777  139.8210  166.1776 O.2     1  UNL1       -0.4478
      7 C         141.3324  141.7111  166.0104 C.ar    1  UNL1        0.0357
      8 C         141.0285  142.2937  164.6620 C.ar    1  UNL1        0.0007
      9 C         142.0098  143.2197  164.0067 C.ar    1  UNL1        0.0014
     10 C         143.2950  143.5632  164.6997 C.ar    1  UNL1        0.0031
     11 C         143.5989  142.9805  166.0481 C.ar    1  UNL1        0.0366
     12 C         142.6175  142.0544  166.7035 C.ar    1  UNL1        0.1360
     13 O         142.9214  141.4718  168.0519 O.3     1  UNL1       -0.4826
     14 C         141.9401  140.5458  168.7072 C.3     1  UNL1        0.1395
     15 C         143.0803  140.6520  169.6761 C.3     1  UNL1        0.0404
     16 C         142.3699  139.7217  170.6142 C.3     1  UNL1        0.0072
     17 C         141.2296  139.6155  169.6453 C.3     1  UNL1        0.0404
     18 C         140.6549  140.2024  168.0141 C.3     1  UNL1        0.1141
     19 C         140.9287  140.4607  167.8313 C.3     1  UNL1        0.1501
     20 O         140.6410  140.1892  168.0234 O.3     1  UNL1       -0.3532
     21 C         140.9287  140.4607  167.8313 C.3     1  UNL1        0.1501
     22 H         138.1025  141.5183  163.0725 H       1  UNL1        0.1466
     23 H         136.8840  140.4878  163.6734 H       1  UNL1        0.1466
     24 C         141.7059  143.8024  162.6583 C.ar    1  UNL1        0.0192
     25 C         140.3826  144.4624  162.4074 C.ar    1  UNL1        0.0031
     26 C         140.0787  145.0451  161.0590 C.ar    1  UNL1        0.0207
     27 C         141.0982  144.9677  159.9615 C.ar    1  UNL1        0.0989
     28 N         142.4216  144.3076  160.2123 N.ar    1  UNL1       -0.2423
     29 C         142.7255  143.7250  161.5607 C.ar    1  UNL1        0.0988
@<TRIPOS>BOND
     1     1     2    1
     2     2     3    2
     3     3     4    1
     4     4     5    1
     5     5     6    1
     6     4     7    1
     7     7     8   ar
     8     8     9   ar
     9     9    24    1
    10    24    25   ar
    11    25    26   ar
    12    26    27   ar
    13    27    28   ar
    14    28    29   ar
    15     9    10   ar
    16    10    11   ar
    17    11    12   ar
    18    12    13    1
    19    13    14    1
    20    14    15    1
    21    15    16    1
    22    16    17    1
    23    14    18    1
    24    18    19    1
    25    19    20    1
    26    20    21    1
    27     6     2    1
    28    12     7   ar
    29    17    14    1
    30    21    18    1
    31    18     4    1
    32    29    24   ar
    33     1    22    1
    34     1    23    1
@<TRIPOS>MOLECULE
*****
 29 34 0 0 0
SMALL
GASTEIGER

@<TRIPOS>ATOM
      1 N         138.7934  137.8368  163.3842 N.pl3   1  UNL1       -0.3133
      2 C         138.9691  138.4853  164.7253 C.2     1  UNL1        0.2770
      3 N         140.0851  139.4069  165.1196 N.2     1  UNL1       -0.2202
      4 C         139.8654  139.8173  166.5455 C.3     1  UNL1        0.1580
      5 C         138.6137  139.1493  167.0325 C.3     1  UNL1        0.2351
      6 O         138.0598  138.3262  165.9076 O.2     1  UNL1       -0.4478
      7 C         141.0919  140.4138  165.9210 C.ar    1  UNL1        0.0357
      8 C         141.4404  140.0930  164.4977 C.ar    1  UNL1        0.0007
      9 C         142.6668  140.6894  163.8732 C.ar    1  UNL1        0.0014
     10 C         143.5448  141.6067  164.6719 C.ar    1  UNL1        0.0031
     11 C         143.1962  141.9275  166.0952 C.ar    1  UNL1        0.0366
     12 C         141.9697  141.3310  166.7197 C.ar    1  UNL1        0.1360
     13 O         141.6211  141.6518  168.1429 O.3     1  UNL1       -0.4826
     14 C         140.3947  141.0553  168.7674 C.3     1  UNL1        0.1395
     15 C         141.0074  141.9002  169.8450 C.3     1  UNL1        0.0404
     16 C         139.9018  141.5090  170.7803 C.3     1  UNL1        0.0072
     17 C         139.2891  140.6642  169.7027 C.3     1  UNL1        0.0404
     18 C         139.5169  140.1381  167.9687 C.3     1  UNL1        0.1141
     19 C         139.8590  140.3045  167.7945 C.3     1  UNL1        0.1501
     20 O         139.4994  140.1296  167.9776 O.3     1  UNL1       -0.3532
     21 C         139.8590  140.3045  167.7945 C.3     1  UNL1        0.1501
     22 H         139.4471  138.0036  162.6673 H       1  UNL1        0.1466
     23 H         138.0242  137.2443  163.2210 H       1  UNL1        0.1466
     24 C         143.0154  140.3686  162.4500 C.ar    1  UNL1        0.0192
     25 C         143.6965  139.0741  162.1181 C.ar    1  UNL1        0.0031
     26 C         144.0451  138.7533  160.6949 C.ar    1  UNL1        0.0207
     27 C         143.7125  139.7271  159.6035 C.ar    1  UNL1        0.0989
     28 N         143.0314  141.0217  159.9353 N.ar    1  UNL1       -0.2423
     29 C         142.6828  141.3425  161.3586 C.ar    1  UNL1        0.0988
@<TRIPOS>BOND
     1     1     2    1
     2     2     3    2
     3     3     4    1
     4     4     5    1
     5     5     6    1
     6     4     7    1
     7     7     8   ar
     8     8     9   ar
     9     9    24    1
    10    24    25   ar
    11    25    26   ar
    12    26    27   ar
    13    27    28   ar
    14    28    29   ar
    15     9    10   ar
    16    10    11   ar
    17    11    12   ar
    18    12    13    1
    19    13    14    1
    20    14    15    1
    21    15    16    1
    22    16    17    1
    23    14    18    1
    24    18    19    1
    25    19    20    1
    26    20    21    1
    27     6     2    1
    28    12     7   ar
    29    17    14    1
    30    21    18    1
    31    18     4    1
    32    29    24   ar
    33     1    22    1
    34     1    23    1
@<TRIPOS>MOLECULE
*****
 29 34 0 0 0
SMALL
GASTEIGER

@<TRIPOS>ATOM
      1 N         143.7238  142.5696  165.7025 N.pl3   1  UNL1       -0.3133
      2 C         142.9278  141.7644  164.7186 C.2     1  UNL1        0.2770
      3 N         141.6747  140.9958  165.0173 N.2     1  UNL1       -0.2202
      4 C         141.2175  140.3428  163.7467 C.3     1  UNL1        0.1580
      5 C         142.1880  140.7079  162.6627 C.3     1  UNL1        0.2351
      6 O         143.2450  141.5865  163.2634 O.2     1  UNL1       -0.4478
      7 C         140.3356  140.0640  164.9275 C.ar    1  UNL1        0.0357
      8 C         140.6681  140.6511  166.2672 C.ar    1  UNL1        0.0007
      9 C         139.7862  140.3722  167.4480 C.ar    1  UNL1        0.0014
     10 C         138.5717  139.5062  167.2892 C.ar    1  UNL1        0.0031
     11 C         138.2392  138.9191  165.9495 C.ar    1  UNL1        0.0366
     12 C         139.1212  139.1980  164.7686 C.ar    1  UNL1        0.1360
     13 O         138.7887  138.6109  163.4289 O.3     1  UNL1       -0.4826
     14 C         139.6706  138.8898  162.2481 C.3     1  UNL1        0.1395
     15 C         138.5797  138.0072  161.7180 C.3     1  UNL1        0.0404
     16 C         139.2004  138.0595  160.3534 C.3     1  UNL1        0.0072
     17 C         140.2914  138.9420  160.8835 C.3     1  UNL1        0.0404
     18 C         140.8850  139.7557  162.4070 C.3     1  UNL1        0.1141
     19 C         140.6390  139.6779  162.7364 C.3     1  UNL1        0.1501
     20 O         140.8976  139.7597  162.3901 O.3     1  UNL1       -0.3532
     21 C         140.6390  139.6779  162.7364 C.3     1  UNL1        0.1501
     22 H         143.4334  142.6264  166.6415 H       1  UNL1        0.1466
     23 H         144.5366  143.0414  165.4093 H       1  UNL1        0.1466
     24 C         140.1186  140.9593  168.7877 C.ar    1  UNL1        0.0192
     25 C         140.5518  142.3915  168.8923 C.ar    1  UNL1        0.0031
     26 C         140.8843  142.9786  170.2320 C.ar    1  UNL1        0.0207
     27 C         140.7836  142.1335  171.4671 C.ar    1  UNL1        0.0989
     28 N         140.3504  140.7011  171.3625 N.ar    1  UNL1       -0.2423
     29 C         140.0179  140.1140  170.0229 C.ar    1  UNL1        0.0988
@<TRIPOS>BOND
     1     1     2    1
     2     2     3    2
     3     3     4    1
     4     4     5    1
     5     5     6    1
     6     4     7    1
     7     7     8   ar
     8     8     9   ar
     9     9    24    1
    10    24    25   ar
    11    25    26   ar
    12    26    27   ar
    13    27    28   ar
    14    28    29   ar
    15     9    10   ar
    16    10    11   ar
    17    11    12   ar
    18    12    13    1
    19    13    14    1
    20    14    15    1
    21    15    16    1
    22    16    17    1
    23    14    18    1
    24    18    19    1
    25    19    20    1
    26    20    21    1
    27     6     2    1
    28    12     7   ar
    29    17    14    1
    30    21    18    1
    31    18     4    1
    32    29    24   ar
    33     1    22    1
    34     1    23    1
@<TRIPOS>MOLECULE
*****
 29 34 0 0 0
SMALL
GASTEIGER

@<TRIPOS>ATOM
      1 N         143.4575  138.2557  166.2578 N.pl3   1  UNL1       -0.3133
      2 C         142.4428  138.4991  165.1803 C.2     1  UNL1        0.2770
      3 N         141.4874  139.6536  165.1133 N.2     1  UNL1       -0.2202
      4 C         140.6594  139.4988  163.8722 C.3     1  UNL1        0.1580
      5 C         141.1031  138.2485  163.1721 C.3     1  UNL1        0.2351
      6 O         142.2052  137.6307  163.9806 O.2     1  UNL1       -0.4478
      7 C         140.3243  140.7167  164.6811 C.ar    1  UNL1        0.0357
      8 C         141.0709  141.0029  165.9502 C.ar    1  UNL1        0.0007
      9 C         140.7358  142.2208  166.7591 C.ar    1  UNL1        0.0014
     10 C         139.6540  143.1526  166.2989 C.ar    1  UNL1        0.0031
     11 C         138.9075  142.8664  165.0297 C.ar    1  UNL1        0.0366
     12 C         139.2427  141.6484  164.2208 C.ar    1  UNL1        0.1360
     13 O         138.4961  141.3622  162.9517 O.3     1  UNL1       -0.4826
     14 C         138.8312  140.1442  162.1428 C.3     1  UNL1        0.1395
     15 C         137.7249  140.8195  161.3876 C.3     1  UNL1        0.0404
     16 C         137.7754  139.7395  160.3479 C.3     1  UNL1        0.0072
     17 C         138.8818  139.0642  161.1030 C.3     1  UNL1        0.0404
     18 C         139.9129  139.2125  162.6030 C.3     1  UNL1        0.1141
     19 C         139.8194  139.5523  162.8287 C.3     1  UNL1        0.1501
     20 O         139.9176  139.1952  162.5915 O.3     1  UNL1       -0.3532
     21 C         139.8194  139.5523  162.8287 C.3     1  UNL1        0.1501
     22 H         143.5383  138.8865  167.0094 H       1  UNL1        0.1466
     23 H         144.0426  137.4653  166.2135 H       1  UNL1        0.1466
     24 C         141.4823  142.5070  168.0283 C.ar    1  UNL1        0.0192
     25 C         142.9293  142.1304  168.1485 C.ar    1  UNL1        0.0031
     26 C         143.6758  142.4166  169.4176 C.ar    1  UNL1        0.0207
     27 C         142.9754  143.0794  170.5666 C.ar    1  UNL1        0.0989
     28 N         141.5284  143.4560  170.4464 N.ar    1  UNL1       -0.2423
     29 C         140.7818  143.1698  169.1773 C.ar    1  UNL1        0.0988
@<TRIPOS>BOND
     1     1     2    1
     2     2     3    2
     3     3     4    1
     4     4     5    1
     5     5     6    1
     6     4     7    1
     7     7     8   ar
     8     8     9   ar
     9     9    24    1
    10    24    25   ar
    11    25    26   ar
    12    26    27   ar
    13    27    28   ar
    14    28    29   ar
    15     9    10   ar
    16    10    11   ar
    17    11    12   ar
    18    12    13    1
    19    13    14    1
    20    14    15    1
    21    15    16    1
    22    16    17    1
    23    14    18    1
    24    18    19    1
    25    19    20    1
    26    20    21    1
    27     6     2    1
    28    12     7   ar
    29    17    14    1
    30    21    18    1
    31    18     4    1
    32    29    24   ar
    33     1    22    1
    34     1    23    1
@<TRIPOS>MOLECULE
*****
 29 34 0 0 0
SMALL
GASTEIGER

@<TRIPOS>ATOM
      1 N         138.3444  138.2594  162.2405 N.pl3   1  UNL1       -0.3133
      2 C         138.6729  138.7092  163.6332 C.2     1  UNL1        0.2770
      3 N         139.1063  140.0878  164.0354 N.2     1  UNL1       -0.2202
      4 C         139.3270  140.0900  165.5190 C.3     1  UNL1        0.1580
      5 C         139.0299  138.7127  166.0338 C.3     1  UNL1        0.2351
      6 O         138.6257  137.8593  164.8683 O.2     1  UNL1       -0.4478
      7 C         139.5880  141.4126  164.8614 C.ar    1  UNL1        0.0357
      8 C         139.4087  141.5619  163.3797 C.ar    1  UNL1        0.0007
      9 C         139.6698  142.8845  162.7221 C.ar    1  UNL1        0.0014
     10 C         140.1102  144.0580  163.5463 C.ar    1  UNL1        0.0031
     11 C         140.2895  143.9087  165.0280 C.ar    1  UNL1        0.0366
     12 C         140.0284  142.5860  165.6856 C.ar    1  UNL1        0.1360
     13 O         140.2077  142.4367  167.1673 O.3     1  UNL1       -0.4826
     14 C         139.9467  141.1140  167.8249 C.3     1  UNL1        0.1395
     15 C         140.3598  142.0275  168.9407 C.3     1  UNL1        0.0404
     16 C         140.2003  140.9029  169.9205 C.3     1  UNL1        0.0072
     17 C         139.7871  139.9894  168.8047 C.3     1  UNL1        0.0404
     18 C         139.5063  139.9407  167.0007 C.3     1  UNL1        0.1141
     19 C         139.5791  140.3097  166.8173 C.3     1  UNL1        0.1501
     20 O         139.5026  139.9219  167.0101 O.3     1  UNL1       -0.3532
     21 C         139.5791  140.3097  166.8173 C.3     1  UNL1        0.1501
     22 H         138.4054  138.8946  161.4908 H       1  UNL1        0.1466
     23 H         138.0677  137.3290  162.0760 H       1  UNL1        0.1466
     24 C         139.4904  143.0338  161.2404 C.ar    1  UNL1        0.0192
     25 C         138.8091  141.9529  160.4547 C.ar    1  UNL1        0.0031
     26 C         138.6298  142.1022  158.9729 C.ar    1  UNL1        0.0207
     27 C         139.1318  143.3324  158.2769 C.ar    1  UNL1        0.0989
     28 N         139.8132  144.4134  159.0626 N.ar    1  UNL1       -0.2423
     29 C         139.9925  144.2641  160.5443 C.ar    1  UNL1        0.0988
@<TRIPOS>BOND
     1     1     2    1
     2     2     3    2
     3     3     4    1
     4     4     5    1
     5     5     6    1
     6     4     7    1
     7     7     8   ar
     8     8     9   ar
     9     9    24    1
    10    24    25   ar
    11    25    26   ar
    12    26    27   ar
    13    27    28   ar
    14    28    29   ar
    15     9    10   ar
    16    10    11   ar
    17    11    12   ar
    18    12    13    1
    19    13    14    1
    20    14    15    1
    21    15    16    1
    22    16    17    1
    23    14    18    1
    24    18    19    1
    25    19    20    1
    26    20    21    1
    27     6     2    1
    28    12     7   ar
    29    17    14    1
    30    21    18    1
    31    18     4    1
    32    29    24   ar
    33     1    22    1
    34     1    23    1
