@<TRIPOS>MOLECULE
*****
 31 34 0 0 0
SMALL
GASTEIGER

@<TRIPOS>ATOM
      1 C         143.9550  139.1841  165.0718 C.3     1  UNL1        0.0719
      2 C         144.0253  139.9461  163.7816 C.ar    1  UNL1        0.1229
      3 N         143.9721  139.2133  162.4739 N.ar    1  UNL1       -0.2306
      4 C         144.0424  139.9753  161.1837 C.ar    1  UNL1        0.1065
      5 C         143.9892  139.2425  159.8760 C.ar    1  UNL1        0.1213
      6 N         144.0595  140.0045  158.5859 N.ar    1  UNL1       -0.2082
      7 C         144.1830  141.4993  158.6035 C.ar    1  UNL1        0.2300
      8 C         144.2362  142.2321  159.9112 C.ar    1  UNL1        0.0644
      9 C         144.1659  141.4701  161.2013 C.ar    1  UNL1        0.0800
     10 C         144.2191  142.2029  162.5091 C.ar    1  UNL1        0.2633
     11 O         144.3426  143.6977  162.5267 O.2     1  UNL1       -0.2669
     12 N         144.1488  141.4409  163.7992 N.ar    1  UNL1       -0.2840
     13 O         144.2533  142.2613  157.3133 O.3     1  UNL1       -0.4338
     14 C         145.4393  142.0982  156.4097 C.ar    1  UNL1        0.1745
     15 C         145.2640  141.5108  155.0407 C.ar    1  UNL1        0.0408
     16 C         146.4501  141.3477  154.1370 C.ar    1  UNL1        0.0147
     17 C         147.8115  141.7721  154.6023 C.ar    1  UNL1        0.0601
     18 CL        148.9975  141.6090  153.6986 Cl      1  UNL1       -0.0822
     19 C         147.9868  142.3596  155.9713 C.ar    1  UNL1        0.0442
     20 C         146.8007  142.5226  156.8750 C.ar    1  UNL1        0.1753
     21 F         146.9760  143.1101  158.2440 F       1  UNL1       -0.2009
     22 C         144.2020  142.1737  165.1070 C.3     1  UNL1        0.1115
     23 C         142.9477  142.3775  165.9040 C.3     1  UNL1        0.0388
     24 C         142.9542  142.1430  167.3856 C.3     1  UNL1        0.0048
     25 C         141.6999  142.3468  168.1827 C.3     1  UNL1        0.0174
     26 C         140.4392  142.7851  167.4981 C.3     1  UNL1        0.0720
     27 N         140.4328  143.0196  166.0166 N.3     1  UNL1       -0.2739
     28 C         141.6870  142.8157  165.2196 C.3     1  UNL1        0.0739
     29 C         139.1721  143.4578  165.3322 C.3     1  UNL1        0.0576
     30 C         138.7537  144.8974  165.3809 C.3     1  UNL1        0.0173
     31 C         138.3297  142.4564  164.5988 C.3     1  UNL1        0.0173
@<TRIPOS>BOND
     1     1     2    1
     2     2     3   ar
     3     3     4   ar
     4     4     5   ar
     5     5     6   ar
     6     6     7   ar
     7     7    13    1
     8    13    14    1
     9    14    15   ar
    10    15    16   ar
    11    16    17   ar
    12    17    18    1
    13    17    19   ar
    14    19    20   ar
    15    20    21    1
    16     7     8   ar
    17     8     9   ar
    18     9    10   ar
    19    10    11    2
    20    10    12   ar
    21    12    22    1
    22    23    22    1
    23    23    24    1
    24    24    25    1
    25    25    26    1
    26    26    27    1
    27    27    29    1
    28    29    30    1
    29    29    31    1
    30    27    28    1
    31    12     2   ar
    32    28    23    1
    33     9     4   ar
    34    20    14   ar
@<TRIPOS>MOLECULE
*****
 31 34 0 0 0
SMALL
GASTEIGER

@<TRIPOS>ATOM
      1 C         139.4607  138.3900  161.1429 C.3     1  UNL1        0.0719
      2 C         139.6150  138.8096  162.5748 C.ar    1  UNL1        0.1229
      3 N         138.6398  138.3268  163.6071 N.ar    1  UNL1       -0.2306
      4 C         138.7941  138.7464  165.0390 C.ar    1  UNL1        0.1065
      5 C         137.8189  138.2635  166.0713 C.ar    1  UNL1        0.1213
      6 N         137.9732  138.6831  167.5031 N.ar    1  UNL1       -0.2082
      7 C         139.1028  139.5856  167.9026 C.ar    1  UNL1        0.2300
      8 C         140.0780  140.0684  166.8703 C.ar    1  UNL1        0.0644
      9 C         139.9237  139.6488  165.4385 C.ar    1  UNL1        0.0800
     10 C         140.8990  140.1317  164.4061 C.ar    1  UNL1        0.2633
     11 O         142.0286  141.0342  164.8056 O.2     1  UNL1       -0.2669
     12 N         140.7446  139.7121  162.9743 N.ar    1  UNL1       -0.2840
     13 O         139.2571  140.0052  169.3345 O.3     1  UNL1       -0.4338
     14 C         140.3532  140.9519  169.7246 C.ar    1  UNL1        0.1745
     15 C         140.1079  142.4316  169.7069 C.ar    1  UNL1        0.0408
     16 C         141.2041  143.3783  170.0971 C.ar    1  UNL1        0.0147
     17 C         142.5455  142.8453  170.5050 C.ar    1  UNL1        0.0601
     18 CL        143.6416  143.7920  170.8951 Cl      1  UNL1       -0.0822
     19 C         142.7908  141.3656  170.5227 C.ar    1  UNL1        0.0442
     20 C         141.6947  140.4189  170.1325 C.ar    1  UNL1        0.1753
     21 F         141.9400  138.9392  170.1503 F       1  UNL1       -0.2009
     22 C         141.7199  140.1949  161.9419 C.3     1  UNL1        0.1115
     23 C         141.6501  141.6095  161.4479 C.3     1  UNL1        0.0388
     24 C         142.6079  142.0846  160.3957 C.3     1  UNL1        0.0048
     25 C         142.5381  143.4992  159.9016 C.3     1  UNL1        0.0174
     26 C         141.5105  144.4387  160.4598 C.3     1  UNL1        0.0720
     27 N         140.5528  143.9636  161.5120 N.3     1  UNL1       -0.2739
     28 C         140.6226  142.5490  162.0060 C.3     1  UNL1        0.0739
     29 C         139.5253  144.9031  162.0701 C.3     1  UNL1        0.0576
     30 C         138.4229  144.3775  162.9411 C.3     1  UNL1        0.0173
     31 C         139.6002  146.3683  161.7574 C.3     1  UNL1        0.0173
@<TRIPOS>BOND
     1     1     2    1
     2     2     3   ar
     3     3     4   ar
     4     4     5   ar
     5     5     6   ar
     6     6     7   ar
     7     7    13    1
     8    13    14    1
     9    14    15   ar
    10    15    16   ar
    11    16    17   ar
    12    17    18    1
    13    17    19   ar
    14    19    20   ar
    15    20    21    1
    16     7     8   ar
    17     8     9   ar
    18     9    10   ar
    19    10    11    2
    20    10    12   ar
    21    12    22    1
    22    23    22    1
    23    23    24    1
    24    24    25    1
    25    25    26    1
    26    26    27    1
    27    27    29    1
    28    29    30    1
    29    29    31    1
    30    27    28    1
    31    12     2   ar
    32    28    23    1
    33     9     4   ar
    34    20    14   ar
@<TRIPOS>MOLECULE
*****
 31 34 0 0 0
SMALL
GASTEIGER

@<TRIPOS>ATOM
      1 C         139.6067  138.4542  158.9907 C.3     1  UNL1        0.0719
      2 C         139.2714  138.7611  160.4202 C.ar    1  UNL1        0.1229
      3 N         139.8184  137.9005  161.5203 N.ar    1  UNL1       -0.2306
      4 C         139.4831  138.2074  162.9498 C.ar    1  UNL1        0.1065
      5 C         140.0301  137.3468  164.0499 C.ar    1  UNL1        0.1213
      6 N         139.6948  137.6538  165.4793 N.ar    1  UNL1       -0.2082
      7 C         138.8125  138.8212  165.8087 C.ar    1  UNL1        0.2300
      8 C         138.2654  139.6818  164.7086 C.ar    1  UNL1        0.0644
      9 C         138.6008  139.3749  163.2792 C.ar    1  UNL1        0.0800
     10 C         138.0537  140.2354  162.1790 C.ar    1  UNL1        0.2633
     11 O         137.1714  141.4029  162.5084 O.2     1  UNL1       -0.2669
     12 N         138.3891  139.9285  160.7496 N.ar    1  UNL1       -0.2840
     13 O         138.4772  139.1281  167.2382 O.3     1  UNL1       -0.4338
     14 C         139.3979  139.9828  168.0577 C.ar    1  UNL1        0.1745
     15 C         140.6735  140.4981  167.4599 C.ar    1  UNL1        0.0408
     16 C         141.5943  141.3528  168.2794 C.ar    1  UNL1        0.0147
     17 C         141.2396  141.6922  169.6968 C.ar    1  UNL1        0.0601
     18 CL        142.1604  142.5469  170.5163 Cl      1  UNL1       -0.0822
     19 C         139.9640  141.1770  170.2946 C.ar    1  UNL1        0.0442
     20 C         139.0432  140.3223  169.4751 C.ar    1  UNL1        0.1753
     21 F         137.7676  139.8070  170.0729 F       1  UNL1       -0.2009
     22 C         137.8420  140.7891  159.6495 C.3     1  UNL1        0.1115
     23 C         138.5468  142.0572  159.2684 C.3     1  UNL1        0.0388
     24 C         138.6539  142.4510  157.8249 C.3     1  UNL1        0.0048
     25 C         139.3587  143.7191  157.4439 C.3     1  UNL1        0.0174
     26 C         139.9563  144.5934  158.5062 C.3     1  UNL1        0.0720
     27 N         139.8492  144.1995  159.9496 N.3     1  UNL1       -0.2739
     28 C         139.1444  142.9314  160.3307 C.3     1  UNL1        0.0739
     29 C         140.4468  145.0738  161.0119 C.3     1  UNL1        0.0576
     30 C         141.7943  144.7452  161.5833 C.3     1  UNL1        0.0173
     31 C         139.6971  146.2767  161.5028 C.3     1  UNL1        0.0173
@<TRIPOS>BOND
     1     1     2    1
     2     2     3   ar
     3     3     4   ar
     4     4     5   ar
     5     5     6   ar
     6     6     7   ar
     7     7    13    1
     8    13    14    1
     9    14    15   ar
    10    15    16   ar
    11    16    17   ar
    12    17    18    1
    13    17    19   ar
    14    19    20   ar
    15    20    21    1
    16     7     8   ar
    17     8     9   ar
    18     9    10   ar
    19    10    11    2
    20    10    12   ar
    21    12    22    1
    22    23    22    1
    23    23    24    1
    24    24    25    1
    25    25    26    1
    26    26    27    1
    27    27    29    1
    28    29    30    1
    29    29    31    1
    30    27    28    1
    31    12     2   ar
    32    28    23    1
    33     9     4   ar
    34    20    14   ar
@<TRIPOS>MOLECULE
*****
 31 34 0 0 0
SMALL
GASTEIGER

@<TRIPOS>ATOM
      1 C         144.8949  140.3963  164.3115 C.3     1  UNL1        0.0719
      2 C         144.1411  139.7934  163.1633 C.ar    1  UNL1        0.1229
      3 N         144.4646  140.2017  161.7567 N.ar    1  UNL1       -0.2306
      4 C         143.7108  139.5987  160.6084 C.ar    1  UNL1        0.1065
      5 C         144.0343  140.0070  159.2018 C.ar    1  UNL1        0.1213
      6 N         143.2806  139.4041  158.0537 N.ar    1  UNL1       -0.2082
      7 C         142.2033  138.3928  158.3122 C.ar    1  UNL1        0.2300
      8 C         141.8798  137.9845  159.7188 C.ar    1  UNL1        0.0644
      9 C         142.6335  138.5875  160.8669 C.ar    1  UNL1        0.0800
     10 C         142.3100  138.1792  162.2736 C.ar    1  UNL1        0.2633
     11 O         141.2327  137.1679  162.5321 O.2     1  UNL1       -0.2669
     12 N         143.0638  138.7821  163.4217 N.ar    1  UNL1       -0.2840
     13 O         141.4495  137.7899  157.1640 O.3     1  UNL1       -0.4338
     14 C         141.9038  136.4904  156.5683 C.ar    1  UNL1        0.1745
     15 C         143.2393  135.9196  156.9434 C.ar    1  UNL1        0.0408
     16 C         143.6936  134.6201  156.3477 C.ar    1  UNL1        0.0147
     17 C         142.8125  133.8914  155.3768 C.ar    1  UNL1        0.0601
     18 CL        143.2668  132.5919  154.7811 Cl      1  UNL1       -0.0822
     19 C         141.4770  134.4622  155.0017 C.ar    1  UNL1        0.0442
     20 C         141.0227  135.7617  155.5974 C.ar    1  UNL1        0.1753
     21 F         139.6872  136.3324  155.2222 F       1  UNL1       -0.2009
     22 C         142.7403  138.3738  164.8284 C.3     1  UNL1        0.1115
     23 C         141.7262  139.1461  165.6191 C.3     1  UNL1        0.0388
     24 C         140.2668  138.8280  165.4809 C.3     1  UNL1        0.0048
     25 C         139.2527  139.6003  166.2716 C.3     1  UNL1        0.0174
     26 C         139.6981  140.6907  167.2005 C.3     1  UNL1        0.0720
     27 N         141.1574  141.0087  167.3388 N.3     1  UNL1       -0.2739
     28 C         142.1715  140.2364  166.5481 C.3     1  UNL1        0.0739
     29 C         141.6027  142.0990  168.2677 C.3     1  UNL1        0.0576
     30 C         143.0602  142.2720  168.5771 C.3     1  UNL1        0.0173
     31 C         140.5904  143.0164  168.8872 C.3     1  UNL1        0.0173
@<TRIPOS>BOND
     1     1     2    1
     2     2     3   ar
     3     3     4   ar
     4     4     5   ar
     5     5     6   ar
     6     6     7   ar
     7     7    13    1
     8    13    14    1
     9    14    15   ar
    10    15    16   ar
    11    16    17   ar
    12    17    18    1
    13    17    19   ar
    14    19    20   ar
    15    20    21    1
    16     7     8   ar
    17     8     9   ar
    18     9    10   ar
    19    10    11    2
    20    10    12   ar
    21    12    22    1
    22    23    22    1
    23    23    24    1
    24    24    25    1
    25    25    26    1
    26    26    27    1
    27    27    29    1
    28    29    30    1
    29    29    31    1
    30    27    28    1
    31    12     2   ar
    32    28    23    1
    33     9     4   ar
    34    20    14   ar
@<TRIPOS>MOLECULE
*****
 31 34 0 0 0
SMALL
GASTEIGER

@<TRIPOS>ATOM
      1 C         144.6670  138.2646  155.3707 C.3     1  UNL1        0.0719
      2 C         143.4065  138.2656  156.1839 C.ar    1  UNL1        0.1229
      3 N         143.3716  138.9610  157.5124 N.ar    1  UNL1       -0.2306
      4 C         142.1111  138.9619  158.3256 C.ar    1  UNL1        0.1065
      5 C         142.0762  139.6573  159.6542 C.ar    1  UNL1        0.1213
      6 N         140.8157  139.6582  160.4673 N.ar    1  UNL1       -0.2082
      7 C         139.5901  138.9637  159.9518 C.ar    1  UNL1        0.2300
      8 C         139.6250  138.2683  158.6233 C.ar    1  UNL1        0.0644
      9 C         140.8855  138.2674  157.8101 C.ar    1  UNL1        0.0800
     10 C         140.9205  137.5720  156.4815 C.ar    1  UNL1        0.2633
     11 O         139.6949  136.8775  155.9660 O.2     1  UNL1       -0.2669
     12 N         142.1809  137.5711  155.6684 N.ar    1  UNL1       -0.2840
     13 O         138.3296  138.9647  160.7650 O.3     1  UNL1       -0.4338
     14 C         138.4031  139.0172  162.2623 C.ar    1  UNL1        0.1745
     15 C         138.8813  137.8219  163.0321 C.ar    1  UNL1        0.0408
     16 C         138.9548  137.8744  164.5294 C.ar    1  UNL1        0.0147
     17 C         138.5499  139.1222  165.2568 C.ar    1  UNL1        0.0601
     18 CL        138.6234  139.1746  166.7541 Cl      1  UNL1       -0.0822
     19 C         138.0716  140.3174  164.4870 C.ar    1  UNL1        0.0442
     20 C         137.9982  140.2650  162.9898 C.ar    1  UNL1        0.1753
     21 F         137.5199  141.4602  162.2200 F       1  UNL1       -0.2009
     22 C         142.2159  136.8757  154.3397 C.3     1  UNL1        0.1115
     23 C         142.4395  135.3939  154.2745 C.3     1  UNL1        0.0388
     24 C         141.8648  134.5979  153.1404 C.3     1  UNL1        0.0048
     25 C         142.0884  133.1161  153.0751 C.3     1  UNL1        0.0174
     26 C         142.8868  132.4303  154.1440 C.3     1  UNL1        0.0720
     27 N         143.4615  133.2263  155.2780 N.3     1  UNL1       -0.2739
     28 C         143.2379  134.7081  155.3432 C.3     1  UNL1        0.0739
     29 C         144.2598  132.5405  156.3467 C.3     1  UNL1        0.0576
     30 C         144.9410  131.2365  156.0539 C.3     1  UNL1        0.0173
     31 C         144.3771  133.1586  157.7085 C.3     1  UNL1        0.0173
@<TRIPOS>BOND
     1     1     2    1
     2     2     3   ar
     3     3     4   ar
     4     4     5   ar
     5     5     6   ar
     6     6     7   ar
     7     7    13    1
     8    13    14    1
     9    14    15   ar
    10    15    16   ar
    11    16    17   ar
    12    17    18    1
    13    17    19   ar
    14    19    20   ar
    15    20    21    1
    16     7     8   ar
    17     8     9   ar
    18     9    10   ar
    19    10    11    2
    20    10    12   ar
    21    12    22    1
    22    23    22    1
    23    23    24    1
    24    24    25    1
    25    25    26    1
    26    26    27    1
    27    27    29    1
    28    29    30    1
    29    29    31    1
    30    27    28    1
    31    12     2   ar
    32    28    23    1
    33     9     4   ar
    34    20    14   ar
@<TRIPOS>MOLECULE
*****
 31 34 0 0 0
SMALL
GASTEIGER

@<TRIPOS>ATOM
      1 C         137.5072  140.9751  163.0497 C.3     1  UNL1        0.0719
      2 C         138.5419  140.2298  162.2595 C.ar    1  UNL1        0.1229
      3 N         138.9286  140.7078  160.8913 N.ar    1  UNL1       -0.2306
      4 C         139.9632  139.9625  160.1012 C.ar    1  UNL1        0.1065
      5 C         140.3500  140.4405  158.7330 C.ar    1  UNL1        0.1213
      6 N         141.3845  139.6952  157.9429 N.ar    1  UNL1       -0.2082
      7 C         142.0324  138.4721  158.5210 C.ar    1  UNL1        0.2300
      8 C         141.6456  137.9941  159.8892 C.ar    1  UNL1        0.0644
      9 C         140.6111  138.7394  160.6793 C.ar    1  UNL1        0.0800
     10 C         140.2243  138.2614  162.0475 C.ar    1  UNL1        0.2633
     11 O         140.8721  137.0383  162.6257 O.2     1  UNL1       -0.2669
     12 N         139.1897  139.0067  162.8376 N.ar    1  UNL1       -0.2840
     13 O         143.0670  137.7268  157.7309 O.3     1  UNL1       -0.4338
     14 C         142.7123  136.4300  157.0658 C.ar    1  UNL1        0.1745
     15 C         143.3494  135.1523  157.5259 C.ar    1  UNL1        0.0408
     16 C         142.9947  133.8554  156.8607 C.ar    1  UNL1        0.0147
     17 C         142.0030  133.8363  155.7356 C.ar    1  UNL1        0.0601
     18 CL        141.6483  132.5394  155.0705 Cl      1  UNL1       -0.0822
     19 C         141.3659  135.1139  155.2755 C.ar    1  UNL1        0.0442
     20 C         141.7205  136.4108  155.9406 C.ar    1  UNL1        0.1753
     21 F         141.0834  137.6884  155.4805 F       1  UNL1       -0.2009
     22 C         138.8029  138.5288  164.2059 C.3     1  UNL1        0.1115
     23 C         139.3730  139.1960  165.4223 C.3     1  UNL1        0.0388
     24 C         138.6246  139.1528  166.7216 C.3     1  UNL1        0.0048
     25 C         139.1947  139.8201  167.9380 C.3     1  UNL1        0.0174
     26 C         140.5133  140.5305  167.8552 C.3     1  UNL1        0.0720
     27 N         141.2616  140.5736  166.5560 N.3     1  UNL1       -0.2739
     28 C         140.6915  139.9064  165.3395 C.3     1  UNL1        0.0739
     29 C         142.5801  141.2840  166.4732 C.3     1  UNL1        0.0576
     30 C         143.0024  142.2122  167.5733 C.3     1  UNL1        0.0173
     31 C         143.4765  141.0662  165.2903 C.3     1  UNL1        0.0173
@<TRIPOS>BOND
     1     1     2    1
     2     2     3   ar
     3     3     4   ar
     4     4     5   ar
     5     5     6   ar
     6     6     7   ar
     7     7    13    1
     8    13    14    1
     9    14    15   ar
    10    15    16   ar
    11    16    17   ar
    12    17    18    1
    13    17    19   ar
    14    19    20   ar
    15    20    21    1
    16     7     8   ar
    17     8     9   ar
    18     9    10   ar
    19    10    11    2
    20    10    12   ar
    21    12    22    1
    22    23    22    1
    23    23    24    1
    24    24    25    1
    25    25    26    1
    26    26    27    1
    27    27    29    1
    28    29    30    1
    29    29    31    1
    30    27    28    1
    31    12     2   ar
    32    28    23    1
    33     9     4   ar
    34    20    14   ar
@<TRIPOS>MOLECULE
*****
 31 34 0 0 0
SMALL
GASTEIGER

@<TRIPOS>ATOM
      1 C         143.5457  143.4219  162.4792 C.3     1  UNL1        0.0719
      2 C         142.6402  144.0107  161.4382 C.ar    1  UNL1        0.1229
      3 N         142.9874  143.8852  159.9844 N.ar    1  UNL1       -0.2306
      4 C         142.0819  144.4739  158.9435 C.ar    1  UNL1        0.1065
      5 C         142.4291  144.3484  157.4896 C.ar    1  UNL1        0.1213
      6 N         141.5236  144.9371  156.4488 N.ar    1  UNL1       -0.2082
      7 C         140.2709  145.6514  156.8618 C.ar    1  UNL1        0.2300
      8 C         139.9237  145.7769  158.3156 C.ar    1  UNL1        0.0644
      9 C         140.8292  145.1882  159.3564 C.ar    1  UNL1        0.0800
     10 C         140.4820  145.3137  160.8103 C.ar    1  UNL1        0.2633
     11 O         139.2293  146.0279  161.2233 O.2     1  UNL1       -0.2669
     12 N         141.3875  144.7249  161.8512 N.ar    1  UNL1       -0.2840
     13 O         139.3653  146.2401  155.8208 O.3     1  UNL1       -0.4338
     14 C         139.2278  147.7290  155.7018 C.ar    1  UNL1        0.1745
     15 C         138.5263  148.5057  156.7764 C.ar    1  UNL1        0.0408
     16 C         138.3887  149.9947  156.6574 C.ar    1  UNL1        0.0147
     17 C         138.9527  150.7069  155.4638 C.ar    1  UNL1        0.0601
     18 CL        138.8151  152.1958  155.3448 Cl      1  UNL1       -0.0822
     19 C         139.6541  149.9303  154.3892 C.ar    1  UNL1        0.0442
     20 C         139.7917  148.4414  154.5082 C.ar    1  UNL1        0.1753
     21 F         140.4932  147.6647  153.4336 F       1  UNL1       -0.2009
     22 C         141.0403  144.8505  163.3051 C.3     1  UNL1        0.1115
     23 C         140.2970  143.7463  163.9967 C.3     1  UNL1        0.0388
     24 C         139.0873  143.1376  163.3514 C.3     1  UNL1        0.0048
     25 C         138.3440  142.0334  164.0430 C.3     1  UNL1        0.0174
     26 C         138.8104  141.5379  165.3799 C.3     1  UNL1        0.0720
     27 N         140.0200  142.1466  166.0251 N.3     1  UNL1       -0.2739
     28 C         140.7633  143.2508  165.3335 C.3     1  UNL1        0.0739
     29 C         140.4862  141.6512  167.3618 C.3     1  UNL1        0.0576
     30 C         139.9308  140.3765  167.9247 C.3     1  UNL1        0.0173
     31 C         141.5080  142.4303  168.1358 C.3     1  UNL1        0.0173
@<TRIPOS>BOND
     1     1     2    1
     2     2     3   ar
     3     3     4   ar
     4     4     5   ar
     5     5     6   ar
     6     6     7   ar
     7     7    13    1
     8    13    14    1
     9    14    15   ar
    10    15    16   ar
    11    16    17   ar
    12    17    18    1
    13    17    19   ar
    14    19    20   ar
    15    20    21    1
    16     7     8   ar
    17     8     9   ar
    18     9    10   ar
    19    10    11    2
    20    10    12   ar
    21    12    22    1
    22    23    22    1
    23    23    24    1
    24    24    25    1
    25    25    26    1
    26    26    27    1
    27    27    29    1
    28    29    30    1
    29    29    31    1
    30    27    28    1
    31    12     2   ar
    32    28    23    1
    33     9     4   ar
    34    20    14   ar
@<TRIPOS>MOLECULE
*****
 31 34 0 0 0
SMALL
GASTEIGER

@<TRIPOS>ATOM
      1 C         139.6722  138.9727  156.7279 C.3     1  UNL1        0.0719
      2 C         140.0205  138.7026  158.1617 C.ar    1  UNL1        0.1229
      3 N         138.9537  138.7526  159.2149 N.ar    1  UNL1       -0.2306
      4 C         139.3020  138.4825  160.6488 C.ar    1  UNL1        0.1065
      5 C         138.2352  138.5326  161.7020 C.ar    1  UNL1        0.1213
      6 N         138.5836  138.2625  163.1357 N.ar    1  UNL1       -0.2082
      7 C         139.9987  137.9423  163.5162 C.ar    1  UNL1        0.2300
      8 C         141.0655  137.8922  162.4630 C.ar    1  UNL1        0.0644
      9 C         140.7172  138.1623  161.0293 C.ar    1  UNL1        0.0800
     10 C         141.7840  138.1123  159.9759 C.ar    1  UNL1        0.2633
     11 O         143.1992  137.7921  160.3564 O.2     1  UNL1       -0.2669
     12 N         141.4357  138.3824  158.5422 N.ar    1  UNL1       -0.2840
     13 O         140.3470  137.6722  164.9501 O.3     1  UNL1       -0.4338
     14 C         140.7029  138.8085  165.8623 C.ar    1  UNL1        0.1745
     15 C         142.1428  139.1317  166.1311 C.ar    1  UNL1        0.0408
     16 C         142.4987  140.2680  167.0434 C.ar    1  UNL1        0.0147
     17 C         141.4147  141.0810  167.6868 C.ar    1  UNL1        0.0601
     18 CL        141.7706  142.2173  168.5990 Cl      1  UNL1       -0.0822
     19 C         139.9749  140.7578  167.4179 C.ar    1  UNL1        0.0442
     20 C         139.6189  139.6215  166.5057 C.ar    1  UNL1        0.1753
     21 F         138.1791  139.2983  166.2369 F       1  UNL1       -0.2009
     22 C         142.5025  138.3323  157.4889 C.3     1  UNL1        0.1115
     23 C         142.6282  137.1266  156.6054 C.3     1  UNL1        0.0388
     24 C         142.4251  137.2571  155.1250 C.3     1  UNL1        0.0048
     25 C         142.5508  136.0514  154.2415 C.3     1  UNL1        0.0174
     26 C         142.8797  134.7152  154.8386 C.3     1  UNL1        0.0720
     27 N         143.0828  134.5847  156.3190 N.3     1  UNL1       -0.2739
     28 C         142.9571  135.7904  157.2024 C.3     1  UNL1        0.0739
     29 C         143.4116  133.2485  156.9160 C.3     1  UNL1        0.0576
     30 C         144.4752  133.1384  157.9680 C.3     1  UNL1        0.0173
     31 C         142.6769  132.0224  156.4610 C.3     1  UNL1        0.0173
@<TRIPOS>BOND
     1     1     2    1
     2     2     3   ar
     3     3     4   ar
     4     4     5   ar
     5     5     6   ar
     6     6     7   ar
     7     7    13    1
     8    13    14    1
     9    14    15   ar
    10    15    16   ar
    11    16    17   ar
    12    17    18    1
    13    17    19   ar
    14    19    20   ar
    15    20    21    1
    16     7     8   ar
    17     8     9   ar
    18     9    10   ar
    19    10    11    2
    20    10    12   ar
    21    12    22    1
    22    23    22    1
    23    23    24    1
    24    24    25    1
    25    25    26    1
    26    26    27    1
    27    27    29    1
    28    29    30    1
    29    29    31    1
    30    27    28    1
    31    12     2   ar
    32    28    23    1
    33     9     4   ar
    34    20    14   ar
@<TRIPOS>MOLECULE
*****
 31 34 0 0 0
SMALL
GASTEIGER

@<TRIPOS>ATOM
      1 C         138.2728  143.9798  163.9527 C.3     1  UNL1        0.0719
      2 C         138.3224  142.9311  162.8812 C.ar    1  UNL1        0.1229
      3 N         138.3953  143.3356  161.4387 N.ar    1  UNL1       -0.2306
      4 C         138.4449  142.2869  160.3672 C.ar    1  UNL1        0.1065
      5 C         138.5179  142.6914  158.9247 C.ar    1  UNL1        0.1213
      6 N         138.5674  141.6428  157.8533 N.ar    1  UNL1       -0.2082
      7 C         138.5440  140.1896  158.2245 C.ar    1  UNL1        0.2300
      8 C         138.4710  139.7851  159.6671 C.ar    1  UNL1        0.0644
      9 C         138.4215  140.8338  160.7384 C.ar    1  UNL1        0.0800
     10 C         138.3485  140.4293  162.1811 C.ar    1  UNL1        0.2633
     11 O         138.3250  138.9761  162.5523 O.2     1  UNL1       -0.2669
     12 N         138.2989  141.4779  163.2524 N.ar    1  UNL1       -0.2840
     13 O         138.5935  139.1409  157.1531 O.3     1  UNL1       -0.4338
     14 C         139.8358  138.3223  156.9618 C.ar    1  UNL1        0.1745
     15 C         141.0940  138.6867  157.6925 C.ar    1  UNL1        0.0408
     16 C         142.3363  137.8679  157.5011 C.ar    1  UNL1        0.0147
     17 C         142.3202  136.6849  156.5791 C.ar    1  UNL1        0.0601
     18 CL        143.5625  135.8663  156.3878 Cl      1  UNL1       -0.0822
     19 C         141.0620  136.3206  155.8484 C.ar    1  UNL1        0.0442
     20 C         139.8197  137.1392  156.0397 C.ar    1  UNL1        0.1753
     21 F         138.5614  136.7749  155.3090 F       1  UNL1       -0.2009
     22 C         138.2259  141.0735  164.6951 C.3     1  UNL1        0.1115
     23 C         139.4841  140.7708  165.4537 C.3     1  UNL1        0.0388
     24 C         140.7974  140.7042  164.7319 C.3     1  UNL1        0.0048
     25 C         142.0555  140.4015  165.4905 C.3     1  UNL1        0.0174
     26 C         142.0003  140.1653  166.9709 C.3     1  UNL1        0.0720
     27 N         140.6870  140.2319  167.6925 N.3     1  UNL1       -0.2739
     28 C         139.4289  140.5346  166.9339 C.3     1  UNL1        0.0739
     29 C         140.6319  139.9958  169.1727 C.3     1  UNL1        0.0576
     30 C         141.8144  139.4064  169.8828 C.3     1  UNL1        0.0173
     31 C         139.3941  140.3491  169.9430 C.3     1  UNL1        0.0173
@<TRIPOS>BOND
     1     1     2    1
     2     2     3   ar
     3     3     4   ar
     4     4     5   ar
     5     5     6   ar
     6     6     7   ar
     7     7    13    1
     8    13    14    1
     9    14    15   ar
    10    15    16   ar
    11    16    17   ar
    12    17    18    1
    13    17    19   ar
    14    19    20   ar
    15    20    21    1
    16     7     8   ar
    17     8     9   ar
    18     9    10   ar
    19    10    11    2
    20    10    12   ar
    21    12    22    1
    22    23    22    1
    23    23    24    1
    24    24    25    1
    25    25    26    1
    26    26    27    1
    27    27    29    1
    28    29    30    1
    29    29    31    1
    30    27    28    1
    31    12     2   ar
    32    28    23    1
    33     9     4   ar
    34    20    14   ar
