@<TRIPOS>MOLECULE
*****
 21 22 0 0 0
SMALL
GASTEIGER

@<TRIPOS>ATOM
      1 C         141.4215  142.5207  166.0269 C.3     1  UNL1        0.0629
      2 C         141.6265  142.5038  167.5128 C.ar    1  UNL1       -0.0187
      3 C         140.4909  142.8474  168.4305 C.ar    1  UNL1       -0.0010
      4 C         140.6959  142.8305  169.9163 C.ar    1  UNL1        0.0363
      5 C         142.0366  142.4700  170.4844 C.ar    1  UNL1        0.1337
      6 O         142.2416  142.4530  171.9703 O.3     1  UNL1       -0.5055
      7 C         143.1722  142.1263  169.5666 C.ar    1  UNL1        0.0363
      8 C         142.9671  142.1432  168.0809 C.ar    1  UNL1       -0.0010
      9 H         141.5322  142.6677  172.5435 H       1  UNL1        0.2922
     10 C         140.0427  142.3611  165.4582 C.3     1  UNL1        0.0933
     11 O         140.3747  140.9263  165.7429 O.3     1  UNL1       -0.3864
     12 C         140.1895  143.8513  165.3710 C.3     1  UNL1        0.0273
     13 C         139.0728  144.6836  164.8139 C.3     1  UNL1        0.0024
     14 C         137.8093  144.0256  164.3441 C.3     1  UNL1        0.0002
     15 C         137.6625  142.5354  164.4313 C.3     1  UNL1        0.0024
     16 C         138.7792  141.7031  164.9884 C.3     1  UNL1        0.0273
     17 H         141.2642  140.8701  166.1258 H       1  UNL1        0.2102
     18 C         142.5952  142.6973  165.1098 C.3     1  UNL1        0.0789
     19 C         142.5927  141.5203  162.7936 C.3     1  UNL1        0.0897
     20 N         143.0336  141.5669  164.2265 N.3     1  UNL1       -0.2699
     21 C         143.9129  140.4831  164.7763 C.3     1  UNL1        0.0897
@<TRIPOS>BOND
     1    19    20    1
     2    20    21    1
     3    20    18    1
     4    18     1    1
     5     1     2    1
     6     2     3   ar
     7     3     4   ar
     8     4     5   ar
     9     5     6    1
    10     5     7   ar
    11     7     8   ar
    12     1    10    1
    13    10    11    1
    14    10    12    1
    15    12    13    1
    16    13    14    1
    17    14    15    1
    18    15    16    1
    19     8     2   ar
    20    16    10    1
    21     6     9    1
    22    11    17    1
@<TRIPOS>MOLECULE
*****
 21 22 0 0 0
SMALL
GASTEIGER

@<TRIPOS>ATOM
      1 C         142.1424  142.1488  166.1165 C.3     1  UNL1        0.0629
      2 C         142.1292  142.2186  167.6149 C.ar    1  UNL1       -0.0187
      3 C         143.4205  142.2033  168.3779 C.ar    1  UNL1       -0.0010
      4 C         143.4072  142.2731  169.8762 C.ar    1  UNL1        0.0363
      5 C         142.1026  142.3582  170.6115 C.ar    1  UNL1        0.1337
      6 O         142.0894  142.4280  172.1099 O.3     1  UNL1       -0.5055
      7 C         140.8113  142.3735  169.8485 C.ar    1  UNL1        0.0363
      8 C         140.8246  142.3038  168.3502 C.ar    1  UNL1       -0.0010
      9 H         142.8961  142.4184  172.5865 H       1  UNL1        0.2922
     10 C         143.1504  141.2877  165.4147 C.3     1  UNL1        0.0933
     11 O         142.1999  140.2336  165.8997 O.3     1  UNL1       -0.3864
     12 C         143.7508  142.6410  165.1735 C.3     1  UNL1        0.0273
     13 C         145.0292  142.7670  164.3989 C.3     1  UNL1        0.0024
     14 C         145.7070  141.5398  163.8655 C.3     1  UNL1        0.0002
     15 C         145.1065  140.1865  164.1068 C.3     1  UNL1        0.0024
     16 C         143.8282  140.0605  164.8814 C.3     1  UNL1        0.0273
     17 H         141.4731  140.6528  166.3866 H       1  UNL1        0.2102
     18 C         141.1478  142.9401  165.3201 C.3     1  UNL1        0.0789
     19 C         140.3575  142.0781  163.0000 C.3     1  UNL1        0.0897
     20 N         140.1306  142.2324  164.4747 N.3     1  UNL1       -0.2699
     21 C         138.8866  141.6789  165.1040 C.3     1  UNL1        0.0897
@<TRIPOS>BOND
     1    19    20    1
     2    20    21    1
     3    20    18    1
     4    18     1    1
     5     1     2    1
     6     2     3   ar
     7     3     4   ar
     8     4     5   ar
     9     5     6    1
    10     5     7   ar
    11     7     8   ar
    12     1    10    1
    13    10    11    1
    14    10    12    1
    15    12    13    1
    16    13    14    1
    17    14    15    1
    18    15    16    1
    19     8     2   ar
    20    16    10    1
    21     6     9    1
    22    11    17    1
@<TRIPOS>MOLECULE
*****
 21 22 0 0 0
SMALL
GASTEIGER

@<TRIPOS>ATOM
      1 C         140.1321  141.3072  166.0199 C.3     1  UNL1        0.0629
      2 C         140.1640  141.5416  167.5012 C.ar    1  UNL1       -0.0187
      3 C         139.7364  140.4543  168.4420 C.ar    1  UNL1       -0.0010
      4 C         139.7684  140.6888  169.9232 C.ar    1  UNL1        0.0363
      5 C         140.2279  142.0104  170.4636 C.ar    1  UNL1        0.1337
      6 O         140.2598  142.2448  171.9449 O.3     1  UNL1       -0.5055
      7 C         140.6554  143.0977  169.5228 C.ar    1  UNL1        0.0363
      8 C         140.6235  142.8632  168.0416 C.ar    1  UNL1       -0.0010
      9 H         139.9927  141.5657  172.5325 H       1  UNL1        0.2922
     10 C         139.6856  139.9809  165.4800 C.3     1  UNL1        0.0933
     11 O         138.3643  140.6860  165.5643 O.3     1  UNL1       -0.3864
     12 C         141.1619  139.7364  165.5832 C.3     1  UNL1        0.0273
     13 C         141.7329  138.4105  165.1757 C.3     1  UNL1        0.0024
     14 C         140.8274  137.3292  164.6650 C.3     1  UNL1        0.0002
     15 C         139.3511  137.5736  164.5618 C.3     1  UNL1        0.0024
     16 C         138.7801  138.8995  164.9693 C.3     1  UNL1        0.0273
     17 H         138.4980  141.5833  165.9077 H       1  UNL1        0.2102
     18 C         140.5467  142.3990  165.0787 C.3     1  UNL1        0.0789
     19 C         138.8328  144.3514  165.1051 C.3     1  UNL1        0.0897
     20 N         139.5055  143.2232  164.3810 N.3     1  UNL1       -0.2699
     21 C         139.1373  142.9192  162.9590 C.3     1  UNL1        0.0897
@<TRIPOS>BOND
     1    19    20    1
     2    20    21    1
     3    20    18    1
     4    18     1    1
     5     1     2    1
     6     2     3   ar
     7     3     4   ar
     8     4     5   ar
     9     5     6    1
    10     5     7   ar
    11     7     8   ar
    12     1    10    1
    13    10    11    1
    14    10    12    1
    15    12    13    1
    16    13    14    1
    17    14    15    1
    18    15    16    1
    19     8     2   ar
    20    16    10    1
    21     6     9    1
    22    11    17    1
@<TRIPOS>MOLECULE
*****
 21 22 0 0 0
SMALL
GASTEIGER

@<TRIPOS>ATOM
      1 C         141.8452  140.8562  166.7132 C.3     1  UNL1        0.0629
      2 C         143.0046  141.1033  165.7941 C.ar    1  UNL1       -0.0187
      3 C         143.7135  139.9470  165.1534 C.ar    1  UNL1       -0.0010
      4 C         144.8729  140.1941  164.2344 C.ar    1  UNL1        0.0363
      5 C         145.3234  141.5975  163.9560 C.ar    1  UNL1        0.1337
      6 O         146.4829  141.8445  163.0369 O.3     1  UNL1       -0.5055
      7 C         144.6146  142.7537  164.5967 C.ar    1  UNL1        0.0363
      8 C         143.4552  142.5066  165.5157 C.ar    1  UNL1       -0.0010
      9 H         146.9257  141.1222  162.6367 H       1  UNL1        0.2922
     10 C         141.5167  141.8480  167.7895 C.3     1  UNL1        0.0933
     11 O         140.4129  142.1431  166.8176 O.3     1  UNL1       -0.3864
     12 C         142.7346  141.2085  168.3875 C.3     1  UNL1        0.0273
     13 C         143.2408  141.6633  169.7243 C.3     1  UNL1        0.0024
     14 C         142.5289  142.7577  170.4630 C.3     1  UNL1        0.0002
     15 C         141.3109  143.3972  169.8650 C.3     1  UNL1        0.0024
     16 C         140.8048  142.9424  168.5282 C.3     1  UNL1        0.0273
     17 H         140.4969  141.5609  166.0463 H       1  UNL1        0.2102
     18 C         141.0143  139.6173  166.5560 C.3     1  UNL1        0.0789
     19 C         140.0732  139.8759  164.1482 C.3     1  UNL1        0.0897
     20 N         139.8521  139.6090  165.6076 N.3     1  UNL1       -0.2699
     21 C         138.4690  139.3338  166.1186 C.3     1  UNL1        0.0897
@<TRIPOS>BOND
     1    19    20    1
     2    20    21    1
     3    20    18    1
     4    18     1    1
     5     1     2    1
     6     2     3   ar
     7     3     4   ar
     8     4     5   ar
     9     5     6    1
    10     5     7   ar
    11     7     8   ar
    12     1    10    1
    13    10    11    1
    14    10    12    1
    15    12    13    1
    16    13    14    1
    17    14    15    1
    18    15    16    1
    19     8     2   ar
    20    16    10    1
    21     6     9    1
    22    11    17    1
@<TRIPOS>MOLECULE
*****
 21 22 0 0 0
SMALL
GASTEIGER

@<TRIPOS>ATOM
      1 C         140.8380  141.7026  166.4010 C.3     1  UNL1        0.0629
      2 C         139.9858  142.4611  165.4270 C.ar    1  UNL1       -0.0187
      3 C         140.4617  143.7730  164.8772 C.ar    1  UNL1       -0.0010
      4 C         139.6095  144.5314  163.9032 C.ar    1  UNL1        0.0363
      5 C         138.2815  143.9778  163.4790 C.ar    1  UNL1        0.1337
      6 O         137.4293  144.7363  162.5050 O.3     1  UNL1       -0.5055
      7 C         137.8056  142.6659  164.0288 C.ar    1  UNL1        0.0363
      8 C         138.6578  141.9075  165.0028 C.ar    1  UNL1       -0.0010
      9 H         137.7266  145.5558  162.1616 H       1  UNL1        0.2922
     10 C         140.2895  141.3317  167.7470 C.3     1  UNL1        0.0933
     11 O         140.1202  140.0262  167.0280 O.3     1  UNL1       -0.3864
     12 C         140.6494  142.7660  167.9985 C.3     1  UNL1        0.0273
     13 C         140.4020  143.3761  169.3464 C.3     1  UNL1        0.0024
     14 C         139.7947  142.5517  170.4426 C.3     1  UNL1        0.0002
     15 C         139.4349  141.1174  170.1911 C.3     1  UNL1        0.0024
     16 C         139.6823  140.5074  168.8432 C.3     1  UNL1        0.0273
     17 H         140.4414  140.1148  166.1170 H       1  UNL1        0.2102
     18 C         142.2384  141.3151  166.0290 C.3     1  UNL1        0.0789
     19 C         141.9977  140.0415  163.7773 C.3     1  UNL1        0.0897
     20 N         142.4819  140.0915  165.1961 N.3     1  UNL1       -0.2699
     21 C         143.2097  138.9180  165.7820 C.3     1  UNL1        0.0897
@<TRIPOS>BOND
     1    19    20    1
     2    20    21    1
     3    20    18    1
     4    18     1    1
     5     1     2    1
     6     2     3   ar
     7     3     4   ar
     8     4     5   ar
     9     5     6    1
    10     5     7   ar
    11     7     8   ar
    12     1    10    1
    13    10    11    1
    14    10    12    1
    15    12    13    1
    16    13    14    1
    17    14    15    1
    18    15    16    1
    19     8     2   ar
    20    16    10    1
    21     6     9    1
    22    11    17    1
@<TRIPOS>MOLECULE
*****
 21 22 0 0 0
SMALL
GASTEIGER

@<TRIPOS>ATOM
      1 C         141.3296  141.6402  166.1348 C.3     1  UNL1        0.0629
      2 C         141.5392  141.8477  167.6055 C.ar    1  UNL1       -0.0187
      3 C         140.3876  141.7004  168.5553 C.ar    1  UNL1       -0.0010
      4 C         140.5972  141.9079  170.0260 C.ar    1  UNL1        0.0363
      5 C         141.9584  142.2627  170.5469 C.ar    1  UNL1        0.1337
      6 O         142.1679  142.4702  172.0177 O.3     1  UNL1       -0.5055
      7 C         143.1099  142.4100  169.5971 C.ar    1  UNL1        0.0363
      8 C         142.9003  142.2025  168.1265 C.ar    1  UNL1       -0.0010
      9 H         141.4486  142.3782  172.6110 H       1  UNL1        0.2922
     10 C         139.9674  141.8324  165.5369 C.3     1  UNL1        0.0933
     11 O         139.9745  140.3407  165.6949 O.3     1  UNL1       -0.3864
     12 C         140.4334  143.2573  165.5865 C.3     1  UNL1        0.0273
     13 C         139.5397  144.3563  165.0931 C.3     1  UNL1        0.0024
     14 C         138.1799  144.0303  164.5501 C.3     1  UNL1        0.0002
     15 C         137.7139  142.6054  164.5004 C.3     1  UNL1        0.0024
     16 C         138.6077  141.5064  164.9938 C.3     1  UNL1        0.0273
     17 H         140.8186  140.0606  166.0821 H       1  UNL1        0.2102
     18 C         142.4822  141.2407  165.2620 C.3     1  UNL1        0.0789
     19 C         143.2241  138.9490  166.2358 C.3     1  UNL1        0.0897
     20 N         142.8064  139.7893  165.0655 N.3     1  UNL1       -0.2699
     21 C         142.7128  139.1782  163.6988 C.3     1  UNL1        0.0897
@<TRIPOS>BOND
     1    19    20    1
     2    20    21    1
     3    20    18    1
     4    18     1    1
     5     1     2    1
     6     2     3   ar
     7     3     4   ar
     8     4     5   ar
     9     5     6    1
    10     5     7   ar
    11     7     8   ar
    12     1    10    1
    13    10    11    1
    14    10    12    1
    15    12    13    1
    16    13    14    1
    17    14    15    1
    18    15    16    1
    19     8     2   ar
    20    16    10    1
    21     6     9    1
    22    11    17    1
@<TRIPOS>MOLECULE
*****
 21 22 0 0 0
SMALL
GASTEIGER

@<TRIPOS>ATOM
      1 C         140.0483  141.0884  166.2877 C.3     1  UNL1        0.0629
      2 C         140.1400  141.3880  167.7547 C.ar    1  UNL1       -0.0187
      3 C         140.5703  142.7486  168.2168 C.ar    1  UNL1       -0.0010
      4 C         140.6619  143.0481  169.6837 C.ar    1  UNL1        0.0363
      5 C         140.3233  141.9871  170.6884 C.ar    1  UNL1        0.1337
      6 O         140.4150  142.2867  172.1554 O.3     1  UNL1       -0.5055
      7 C         139.8931  140.6265  170.2263 C.ar    1  UNL1        0.0363
      8 C         139.8014  140.3270  168.7594 C.ar    1  UNL1       -0.0010
      9 H         140.6838  143.1366  172.4441 H       1  UNL1        0.2922
     10 C         140.7216  139.8707  165.7274 C.3     1  UNL1        0.0933
     11 O         141.9195  140.6273  166.2200 O.3     1  UNL1       -0.3864
     12 C         139.2899  139.5371  165.4294 C.3     1  UNL1        0.0273
     13 C         138.9475  138.2484  164.7422 C.3     1  UNL1        0.0024
     14 C         140.0368  137.2935  164.3530 C.3     1  UNL1        0.0002
     15 C         141.4686  137.6272  164.6510 C.3     1  UNL1        0.0024
     16 C         141.8110  138.9158  165.3383 C.3     1  UNL1        0.0273
     17 H         141.6321  141.4629  166.6201 H       1  UNL1        0.2102
     18 C         139.2834  142.0065  165.3811 C.3     1  UNL1        0.0789
     19 C         141.2405  143.4995  164.5499 C.3     1  UNL1        0.0897
     20 N         139.8328  143.3623  165.0496 N.3     1  UNL1       -0.2699
     21 C         138.9746  144.5810  165.2177 C.3     1  UNL1        0.0897
@<TRIPOS>BOND
     1    19    20    1
     2    20    21    1
     3    20    18    1
     4    18     1    1
     5     1     2    1
     6     2     3   ar
     7     3     4   ar
     8     4     5   ar
     9     5     6    1
    10     5     7   ar
    11     7     8   ar
    12     1    10    1
    13    10    11    1
    14    10    12    1
    15    12    13    1
    16    13    14    1
    17    14    15    1
    18    15    16    1
    19     8     2   ar
    20    16    10    1
    21     6     9    1
    22    11    17    1
@<TRIPOS>MOLECULE
*****
 21 22 0 0 0
SMALL
GASTEIGER

@<TRIPOS>ATOM
      1 C         141.1591  142.0351  166.0516 C.3     1  UNL1        0.0629
      2 C         141.4271  142.1277  167.5246 C.ar    1  UNL1       -0.0187
      3 C         142.5386  141.3275  168.1365 C.ar    1  UNL1       -0.0010
      4 C         142.8065  141.4201  169.6094 C.ar    1  UNL1        0.0363
      5 C         141.9630  142.3128  170.4705 C.ar    1  UNL1        0.1337
      6 O         142.2309  142.4054  171.9435 O.3     1  UNL1       -0.5055
      7 C         140.8515  143.1130  169.8587 C.ar    1  UNL1        0.0363
      8 C         140.5836  143.0204  168.3857 C.ar    1  UNL1       -0.0010
      9 H         142.9253  141.9056  172.3257 H       1  UNL1        0.2922
     10 C         141.3122  143.2489  165.1838 C.3     1  UNL1        0.0933
     11 O         139.8177  143.2000  165.3020 O.3     1  UNL1       -0.3864
     12 C         142.7536  142.8762  165.3670 C.3     1  UNL1        0.0273
     13 C         143.8290  143.7004  164.7234 C.3     1  UNL1        0.0024
     14 C         143.4630  144.8973  163.8966 C.3     1  UNL1        0.0002
     15 C         142.0216  145.2700  163.7133 C.3     1  UNL1        0.0024
     16 C         140.9462  144.4458  164.3570 C.3     1  UNL1        0.0273
     17 H         139.5615  142.4433  165.8520 H       1  UNL1        0.2102
     18 C         140.7381  140.7288  165.4465 C.3     1  UNL1        0.0789
     19 C         138.3108  140.1869  164.6949 C.3     1  UNL1        0.0897
     20 N         139.3802  140.1663  165.7465 N.3     1  UNL1       -0.2699
     21 C         139.0919  139.5831  167.0981 C.3     1  UNL1        0.0897
@<TRIPOS>BOND
     1    19    20    1
     2    20    21    1
     3    20    18    1
     4    18     1    1
     5     1     2    1
     6     2     3   ar
     7     3     4   ar
     8     4     5   ar
     9     5     6    1
    10     5     7   ar
    11     7     8   ar
    12     1    10    1
    13    10    11    1
    14    10    12    1
    15    12    13    1
    16    13    14    1
    17    14    15    1
    18    15    16    1
    19     8     2   ar
    20    16    10    1
    21     6     9    1
    22    11    17    1
@<TRIPOS>MOLECULE
*****
 21 22 0 0 0
SMALL
GASTEIGER

@<TRIPOS>ATOM
      1 C         141.8413  141.3130  166.1933 C.3     1  UNL1        0.0629
      2 C         141.9273  141.5921  167.6647 C.ar    1  UNL1       -0.0187
      3 C         141.0488  142.6395  168.2820 C.ar    1  UNL1       -0.0010
      4 C         141.1349  142.9186  169.7533 C.ar    1  UNL1        0.0363
      5 C         142.0994  142.1501  170.6072 C.ar    1  UNL1        0.1337
      6 O         142.1854  142.4292  172.0786 O.3     1  UNL1       -0.5055
      7 C         142.9778  141.1027  169.9899 C.ar    1  UNL1        0.0363
      8 C         142.8918  140.8237  168.5186 C.ar    1  UNL1       -0.0010
      9 H         141.6367  143.0835  172.4642 H       1  UNL1        0.2922
     10 C         143.0548  140.8443  165.4467 C.3     1  UNL1        0.0933
     11 O         142.4173  139.5238  165.7627 O.3     1  UNL1       -0.3864
     12 C         143.2709  142.3275  165.3900 C.3     1  UNL1        0.0273
     13 C         144.4792  142.8835  164.6964 C.3     1  UNL1        0.0024
     14 C         145.4713  141.9561  164.0595 C.3     1  UNL1        0.0002
     15 C         145.2552  140.4728  164.1162 C.3     1  UNL1        0.0024
     16 C         144.0470  139.9169  164.8098 C.3     1  UNL1        0.0273
     17 H         141.5971  139.6714  166.2591 H       1  UNL1        0.2102
     18 C         140.5417  141.5027  165.4687 C.3     1  UNL1        0.0789
     19 C         139.4405  139.7764  163.8695 C.3     1  UNL1        0.0897
     20 N         139.6276  140.3337  165.2495 N.3     1  UNL1       -0.2699
     21 C         138.9006  139.7222  166.4103 C.3     1  UNL1        0.0897
@<TRIPOS>BOND
     1    19    20    1
     2    20    21    1
     3    20    18    1
     4    18     1    1
     5     1     2    1
     6     2     3   ar
     7     3     4   ar
     8     4     5   ar
     9     5     6    1
    10     5     7   ar
    11     7     8   ar
    12     1    10    1
    13    10    11    1
    14    10    12    1
    15    12    13    1
    16    13    14    1
    17    14    15    1
    18    15    16    1
    19     8     2   ar
    20    16    10    1
    21     6     9    1
    22    11    17    1
