@<TRIPOS>MOLECULE
*****
 38 43 0 0 0
SMALL
GASTEIGER

@<TRIPOS>ATOM
      1 C         139.7869  143.1376  164.2219 C.2     1  UNL1       -0.0155
      2 C         138.9495  144.3815  164.1851 C.2     1  UNL1       -0.0023
      3 C         138.8833  145.2041  162.9326 C.2     1  UNL1        0.0203
      4 C         139.6544  144.7829  161.7169 C.2     1  UNL1        0.1007
      5 N         139.7827  145.3878  160.3503 N.2     1  UNL1       -0.1482
      6 N         140.6993  144.5177  159.5424 N.2     1  UNL1       -0.1467
      7 C         141.1376  143.3751  160.4098 C.2     1  UNL1        0.1199
      8 C         140.4918  143.5390  161.7537 C.2     1  UNL1        0.0225
      9 C         140.5581  142.7163  163.0062 C.3     1  UNL1        0.0559
     10 C         139.9858  140.6693  167.9794 C.ar    1  UNL1        0.0667
     11 C         140.4669  142.0900  167.9890 C.ar    1  UNL1        0.0160
     12 C         140.4006  142.9128  166.7365 C.ar    1  UNL1        0.0032
     13 C         139.8532  142.3148  165.4744 C.ar    1  UNL1        0.0239
     14 C         139.3721  140.8941  165.4649 C.ar    1  UNL1        0.1411
     15 F         138.8246  140.2961  164.2027 F       1  UNL1       -0.2041
     16 C         139.4383  140.0713  166.7173 C.ar    1  UNL1        0.0454
     17 N         140.0520  139.8466  169.2318 N.pl3   1  UNL1       -0.2186
     18 H         139.3328  139.2070  169.4393 H       1  UNL1        0.1734
     19 C         142.3761  140.1498  171.1045 C.3     1  UNL1        0.1996
     20 S         141.2140  139.9982  170.1681 S.O2    1  UNL1        0.0558
     21 O         140.3065  140.6064  171.1959 O.2     1  UNL1       -0.1544
     22 O         142.1215  139.3900  169.1404 O.2     1  UNL1       -0.1544
     23 C         142.0598  142.2637  160.0045 C.ar    1  UNL1        0.1226
     24 C         142.4647  142.1112  158.5683 C.ar    1  UNL1        0.1198
     25 N         143.3868  140.9997  158.1629 N.ar    1  UNL1       -0.2358
     26 C         143.9042  140.0408  159.1938 C.ar    1  UNL1        0.1564
     27 C         143.4993  140.1933  160.6300 C.ar    1  UNL1        0.2447
     28 N         142.5771  141.3047  161.0354 N.ar    1  UNL1       -0.2072
     29 O         144.0166  139.2343  161.6610 O.3     1  UNL1       -0.4615
     30 C         143.0613  138.5403  162.5862 C.3     1  UNL1        0.1830
     31 C         141.9877  137.6536  162.0283 C.3     1  UNL1        0.1127
     32 N         141.0324  136.9597  162.9535 N.3     1  UNL1       -0.2945
     33 C         141.1506  137.1524  164.4364 C.3     1  UNL1        0.0688
     34 C         142.2243  138.0391  164.9941 C.3     1  UNL1        0.0206
     35 C         143.1796  138.7331  164.0690 C.3     1  UNL1        0.0396
     36 C         144.3511  139.6457  163.8568 C.3     1  UNL1        0.0037
     37 C         143.8678  139.3563  165.2471 C.3     1  UNL1        0.0037
     38 H         141.1269  135.9593  162.7781 H       1  UNL1        0.1234
@<TRIPOS>BOND
     1    19    20    1
     2    20    21    2
     3    20    22    2
     4    20    17    1
     5    17    10    1
     6    10    11   ar
     7    11    12   ar
     8    12    13   ar
     9    13     1    1
    10     1     2    2
    11     2     3    1
    12     3     4    2
    13     4     5    1
    14     5     6    2
    15     6     7    1
    16     7    23    1
    17    23    24   ar
    18    24    25   ar
    19    25    26   ar
    20    26    27   ar
    21    27    29    1
    22    30    29    1
    23    30    31    1
    24    31    32    1
    25    32    33    1
    26    33    34    1
    27    34    35    1
    28    35    36    1
    29    36    37    1
    30    27    28   ar
    31     7     8    2
    32     8     9    1
    33    13    14   ar
    34    14    15    1
    35    14    16   ar
    36    16    10   ar
    37     9     1    1
    38     8     4    1
    39    28    23   ar
    40    35    30    1
    41    37    35    1
    42    17    18    1
    43    32    38    1
@<TRIPOS>MOLECULE
*****
 38 43 0 0 0
SMALL
GASTEIGER

@<TRIPOS>ATOM
      1 C         142.1803  139.3960  163.3776 C.2     1  UNL1       -0.0155
      2 C         142.9434  138.1487  163.0430 C.2     1  UNL1       -0.0023
      3 C         143.6158  138.0162  161.7087 C.2     1  UNL1        0.0203
      4 C         143.5252  139.1309  160.7091 C.2     1  UNL1        0.1007
      5 N         144.0805  139.2847  159.3241 N.2     1  UNL1       -0.1482
      6 N         143.6605  140.6271  158.8029 N.2     1  UNL1       -0.1467
      7 C         142.8457  141.3028  159.8657 C.2     1  UNL1        0.1199
      8 C         142.7621  140.3781  161.0438 C.2     1  UNL1        0.0225
      9 C         142.0897  140.5107  162.3780 C.3     1  UNL1        0.0559
     10 C         140.1630  139.7937  167.3805 C.ar    1  UNL1        0.0667
     11 C         139.3380  139.6686  166.1340 C.ar    1  UNL1        0.0160
     12 C         140.0105  139.5360  164.7997 C.ar    1  UNL1        0.0032
     13 C         141.5079  139.5286  164.7119 C.ar    1  UNL1        0.0239
     14 C         142.3329  139.6537  165.9584 C.ar    1  UNL1        0.1411
     15 F         143.8303  139.6462  165.8706 F       1  UNL1       -0.2041
     16 C         141.6605  139.7863  167.2926 C.ar    1  UNL1        0.0454
     17 N         139.4906  139.9263  168.7147 N.pl3   1  UNL1       -0.2186
     18 H         138.6043  139.5236  168.8615 H       1  UNL1        0.1734
     19 C         140.8467  141.4187  170.9360 C.3     1  UNL1        0.1996
     20 S         140.1686  140.6725  169.8253 S.O2    1  UNL1        0.0558
     21 O         140.3948  139.3814  170.5547 O.2     1  UNL1       -0.1544
     22 O         139.9425  141.9635  169.0960 O.2     1  UNL1       -0.1544
     23 C         142.2238  142.6643  159.7676 C.ar    1  UNL1        0.1226
     24 C         142.7667  143.6685  158.7946 C.ar    1  UNL1        0.1198
     25 N         142.1447  145.0299  158.6965 N.ar    1  UNL1       -0.2358
     26 C         140.9799  145.3872  159.5714 C.ar    1  UNL1        0.1564
     27 C         140.4370  144.3830  160.5444 C.ar    1  UNL1        0.2447
     28 N         141.0590  143.0215  160.6425 N.ar    1  UNL1       -0.2072
     29 O         139.2721  144.7402  161.4194 O.3     1  UNL1       -0.4615
     30 C         138.5627  143.6716  162.1970 C.3     1  UNL1        0.1830
     31 C         137.9291  142.5170  161.4790 C.3     1  UNL1        0.1127
     32 N         137.2197  141.4484  162.2566 N.3     1  UNL1       -0.2945
     33 C         137.1439  141.5342  163.7523 C.3     1  UNL1        0.0688
     34 C         137.7775  142.6888  164.4703 C.3     1  UNL1        0.0206
     35 C         138.4869  143.7574  163.6926 C.3     1  UNL1        0.0396
     36 C         139.2624  145.0411  163.6582 C.3     1  UNL1        0.0037
     37 C         138.8090  144.4736  164.9706 C.3     1  UNL1        0.0037
     38 H         137.6826  140.5668  162.0354 H       1  UNL1        0.1234
@<TRIPOS>BOND
     1    19    20    1
     2    20    21    2
     3    20    22    2
     4    20    17    1
     5    17    10    1
     6    10    11   ar
     7    11    12   ar
     8    12    13   ar
     9    13     1    1
    10     1     2    2
    11     2     3    1
    12     3     4    2
    13     4     5    1
    14     5     6    2
    15     6     7    1
    16     7    23    1
    17    23    24   ar
    18    24    25   ar
    19    25    26   ar
    20    26    27   ar
    21    27    29    1
    22    30    29    1
    23    30    31    1
    24    31    32    1
    25    32    33    1
    26    33    34    1
    27    34    35    1
    28    35    36    1
    29    36    37    1
    30    27    28   ar
    31     7     8    2
    32     8     9    1
    33    13    14   ar
    34    14    15    1
    35    14    16   ar
    36    16    10   ar
    37     9     1    1
    38     8     4    1
    39    28    23   ar
    40    35    30    1
    41    37    35    1
    42    17    18    1
    43    32    38    1
@<TRIPOS>MOLECULE
*****
 38 43 0 0 0
SMALL
GASTEIGER

@<TRIPOS>ATOM
      1 C         140.2183  139.3211  164.4507 C.2     1  UNL1       -0.0155
      2 C         139.4799  138.0236  164.3055 C.2     1  UNL1       -0.0023
      3 C         138.7678  137.7053  163.0243 C.2     1  UNL1        0.0203
      4 C         138.7940  138.6846  161.8883 C.2     1  UNL1        0.1007
      5 N         138.1892  138.6465  160.5161 N.2     1  UNL1       -0.1482
      6 N         138.5538  139.9205  159.8134 N.2     1  UNL1       -0.1467
      7 C         139.3840  140.7459  160.7512 C.2     1  UNL1        0.1199
      8 C         139.5325  139.9821  162.0336 C.2     1  UNL1        0.0225
      9 C         140.2446  140.3004  163.3148 C.3     1  UNL1        0.0559
     10 C         142.3549  140.2760  168.2944 C.ar    1  UNL1        0.0667
     11 C         141.0657  140.9667  167.9613 C.ar    1  UNL1        0.0160
     12 C         140.3535  140.6484  166.6801 C.ar    1  UNL1        0.0032
     13 C         140.9305  139.6394  165.7319 C.ar    1  UNL1        0.0239
     14 C         142.2197  138.9487  166.0650 C.ar    1  UNL1        0.1411
     15 F         142.7967  137.9397  165.1168 F       1  UNL1       -0.2041
     16 C         142.9319  139.2670  167.3462 C.ar    1  UNL1        0.0454
     17 N         143.0671  140.5943  169.5755 N.pl3   1  UNL1       -0.2186
     18 H         143.5992  139.9007  170.0284 H       1  UNL1        0.1734
     19 C         142.8702  143.3445  170.7579 C.3     1  UNL1        0.1996
     20 S         142.9687  141.9694  170.1667 S.O2    1  UNL1        0.0558
     21 O         143.9186  142.4846  169.1264 O.2     1  UNL1       -0.1544
     22 O         142.0187  141.4542  171.2069 O.2     1  UNL1       -0.1544
     23 C         139.9639  142.0979  160.4581 C.ar    1  UNL1        0.1226
     24 C         139.2013  143.0737  159.6118 C.ar    1  UNL1        0.1198
     25 N         139.7812  144.4256  159.3187 N.ar    1  UNL1       -0.2358
     26 C         141.1237  144.8019  159.8719 C.ar    1  UNL1        0.1564
     27 C         141.8863  143.8261  160.7183 C.ar    1  UNL1        0.2447
     28 N         141.3064  142.4742  161.0114 N.ar    1  UNL1       -0.2072
     29 O         143.2289  144.2023  161.2716 O.3     1  UNL1       -0.4615
     30 C         143.9941  143.2244  162.1131 C.3     1  UNL1        0.1830
     31 C         144.5104  141.9543  161.5043 C.3     1  UNL1        0.1127
     32 N         145.2756  140.9764  162.3458 N.3     1  UNL1       -0.2945
     33 C         145.5246  141.2684  163.7959 C.3     1  UNL1        0.0688
     34 C         145.0083  142.5385  164.4045 C.3     1  UNL1        0.0206
     35 C         144.2431  143.5164  163.5631 C.3     1  UNL1        0.0396
     36 C         143.5032  144.8144  163.4287 C.3     1  UNL1        0.0037
     37 C         144.0888  144.4183  164.7517 C.3     1  UNL1        0.0037
     38 H         146.1894  140.8625  161.9072 H       1  UNL1        0.1234
@<TRIPOS>BOND
     1    19    20    1
     2    20    21    2
     3    20    22    2
     4    20    17    1
     5    17    10    1
     6    10    11   ar
     7    11    12   ar
     8    12    13   ar
     9    13     1    1
    10     1     2    2
    11     2     3    1
    12     3     4    2
    13     4     5    1
    14     5     6    2
    15     6     7    1
    16     7    23    1
    17    23    24   ar
    18    24    25   ar
    19    25    26   ar
    20    26    27   ar
    21    27    29    1
    22    30    29    1
    23    30    31    1
    24    31    32    1
    25    32    33    1
    26    33    34    1
    27    34    35    1
    28    35    36    1
    29    36    37    1
    30    27    28   ar
    31     7     8    2
    32     8     9    1
    33    13    14   ar
    34    14    15    1
    35    14    16   ar
    36    16    10   ar
    37     9     1    1
    38     8     4    1
    39    28    23   ar
    40    35    30    1
    41    37    35    1
    42    17    18    1
    43    32    38    1
@<TRIPOS>MOLECULE
*****
 38 43 0 0 0
SMALL
GASTEIGER

@<TRIPOS>ATOM
      1 C         139.7242  142.8881  164.1287 C.2     1  UNL1       -0.0155
      2 C         139.3305  144.3354  164.1145 C.2     1  UNL1       -0.0023
      3 C         139.2806  145.0864  162.8171 C.2     1  UNL1        0.0203
      4 C         139.6245  144.3900  161.5337 C.2     1  UNL1        0.1007
      5 N         139.6642  144.8674  160.1122 N.2     1  UNL1       -0.1482
      6 N         140.0825  143.7150  159.2479 N.2     1  UNL1       -0.1467
      7 C         140.3012  142.5255  160.1352 C.2     1  UNL1        0.1199
      8 C         140.0182  142.9427  161.5479 C.2     1  UNL1        0.0225
      9 C         140.0680  142.1918  162.8454 C.3     1  UNL1        0.0559
     10 C         139.8738  140.6350  168.0212 C.ar    1  UNL1        0.0667
     11 C         140.4614  142.0120  167.9287 C.ar    1  UNL1        0.0160
     12 C         140.4116  142.7630  166.6311 C.ar    1  UNL1        0.0032
     13 C         139.7741  142.1371  165.4263 C.ar    1  UNL1        0.0239
     14 C         139.1864  140.7601  165.5188 C.ar    1  UNL1        0.1411
     15 F         138.5489  140.1342  164.3139 F       1  UNL1       -0.2041
     16 C         139.2363  140.0090  166.8163 C.ar    1  UNL1        0.0454
     17 N         139.9236  139.8839  169.3187 N.pl3   1  UNL1       -0.2186
     18 H         139.2616  139.1796  169.5055 H       1  UNL1        0.1734
     19 C         142.0407  140.5281  171.3443 C.3     1  UNL1        0.1996
     20 S         140.9822  140.2060  170.3315 S.O2    1  UNL1        0.0558
     21 O         141.9706  139.3825  169.5602 O.2     1  UNL1       -0.1544
     22 O         139.9937  141.0295  171.1027 O.2     1  UNL1       -0.1544
     23 C         140.7281  141.1588  159.6883 C.ar    1  UNL1        0.1226
     24 C         140.7457  140.8188  158.2274 C.ar    1  UNL1        0.1198
     25 N         141.1725  139.4521  157.7805 N.ar    1  UNL1       -0.2358
     26 C         141.5819  138.4252  158.7944 C.ar    1  UNL1        0.1564
     27 C         141.5644  138.7652  160.2552 C.ar    1  UNL1        0.2447
     28 N         141.1375  140.1319  160.7021 N.ar    1  UNL1       -0.2072
     29 O         141.9738  137.7383  161.2692 O.3     1  UNL1       -0.4615
     30 C         142.6670  138.1636  162.5296 C.3     1  UNL1        0.1830
     31 C         144.0173  138.8134  162.4601 C.3     1  UNL1        0.1127
     32 N         144.7105  139.2387  163.7204 N.3     1  UNL1       -0.2945
     33 C         144.0537  139.0143  165.0502 C.3     1  UNL1        0.0688
     34 C         142.7035  138.3645  165.1196 C.3     1  UNL1        0.0206
     35 C         142.0102  137.9392  163.8593 C.3     1  UNL1        0.0396
     36 C         140.8304  137.3185  163.1716 C.3     1  UNL1        0.0037
     37 C         140.8514  137.4345  164.6670 C.3     1  UNL1        0.0037
     38 H         144.8780  140.2417  163.6403 H       1  UNL1        0.1234
@<TRIPOS>BOND
     1    19    20    1
     2    20    21    2
     3    20    22    2
     4    20    17    1
     5    17    10    1
     6    10    11   ar
     7    11    12   ar
     8    12    13   ar
     9    13     1    1
    10     1     2    2
    11     2     3    1
    12     3     4    2
    13     4     5    1
    14     5     6    2
    15     6     7    1
    16     7    23    1
    17    23    24   ar
    18    24    25   ar
    19    25    26   ar
    20    26    27   ar
    21    27    29    1
    22    30    29    1
    23    30    31    1
    24    31    32    1
    25    32    33    1
    26    33    34    1
    27    34    35    1
    28    35    36    1
    29    36    37    1
    30    27    28   ar
    31     7     8    2
    32     8     9    1
    33    13    14   ar
    34    14    15    1
    35    14    16   ar
    36    16    10   ar
    37     9     1    1
    38     8     4    1
    39    28    23   ar
    40    35    30    1
    41    37    35    1
    42    17    18    1
    43    32    38    1
@<TRIPOS>MOLECULE
*****
 38 43 0 0 0
SMALL
GASTEIGER

@<TRIPOS>ATOM
      1 C         141.1782  143.6937  163.5967 C.2     1  UNL1       -0.0155
      2 C         140.6628  145.0965  163.4686 C.2     1  UNL1       -0.0023
      3 C         140.1815  145.6003  162.1403 C.2     1  UNL1        0.0203
      4 C         140.2157  144.7013  160.9400 C.2     1  UNL1        0.1007
      5 N         139.8109  144.9179  159.5119 N.2     1  UNL1       -0.1482
      6 N         140.0762  143.6489  158.7574 N.2     1  UNL1       -0.1467
      7 C         140.6449  142.6481  159.7192 C.2     1  UNL1        0.1199
      8 C         140.7311  143.2985  161.0681 C.2     1  UNL1        0.0225
      9 C         141.2123  142.7947  162.3964 C.3     1  UNL1        0.0559
     10 C         142.6220  142.1821  167.5818 C.ar    1  UNL1        0.0667
     11 C         141.1541  142.3735  167.3393 C.ar    1  UNL1        0.0160
     12 C         140.6729  142.8774  166.0109 C.ar    1  UNL1        0.0032
     13 C         141.6594  143.1898  164.9251 C.ar    1  UNL1        0.0239
     14 C         143.1273  142.9984  165.1676 C.ar    1  UNL1        0.1411
     15 F         144.1138  143.3108  164.0816 F       1  UNL1       -0.2041
     16 C         143.6085  142.4945  166.4959 C.ar    1  UNL1        0.0454
     17 N         143.1033  141.6782  168.9101 N.pl3   1  UNL1       -0.2186
     18 H         143.8440  142.1347  169.3707 H       1  UNL1        0.1734
     19 C         141.8085  139.2795  170.1632 C.3     1  UNL1        0.1996
     20 S         142.4559  140.4789  169.5366 S.O2    1  UNL1        0.0558
     21 O         143.0107  139.6102  168.4469 O.2     1  UNL1       -0.1544
     22 O         141.9012  141.3476  170.6263 O.2     1  UNL1       -0.1544
     23 C         141.0553  141.2434  159.3899 C.ar    1  UNL1        0.1226
     24 C         141.2355  140.8305  157.9591 C.ar    1  UNL1        0.1198
     25 N         141.6459  139.4259  157.6299 N.ar    1  UNL1       -0.2358
     26 C         141.8762  138.4340  158.7312 C.ar    1  UNL1        0.1564
     27 C         141.6960  138.8469  160.1620 C.ar    1  UNL1        0.2447
     28 N         141.2856  140.2515  160.4913 N.ar    1  UNL1       -0.2072
     29 O         141.9263  137.8550  161.2636 O.3     1  UNL1       -0.4615
     30 C         142.6720  138.2654  162.4986 C.3     1  UNL1        0.1830
     31 C         143.9996  138.9534  162.3792 C.3     1  UNL1        0.1127
     32 N         144.7454  139.3638  163.6142 N.3     1  UNL1       -0.2945
     33 C         144.1636  139.0864  164.9688 C.3     1  UNL1        0.0688
     34 C         142.8360  138.3984  165.0881 C.3     1  UNL1        0.0206
     35 C         142.0902  137.9880  163.8530 C.3     1  UNL1        0.0396
     36 C         140.8931  137.3538  163.2088 C.3     1  UNL1        0.0037
     37 C         140.9878  137.4306  164.7039 C.3     1  UNL1        0.0037
     38 H         144.8825  140.3728  163.5537 H       1  UNL1        0.1234
@<TRIPOS>BOND
     1    19    20    1
     2    20    21    2
     3    20    22    2
     4    20    17    1
     5    17    10    1
     6    10    11   ar
     7    11    12   ar
     8    12    13   ar
     9    13     1    1
    10     1     2    2
    11     2     3    1
    12     3     4    2
    13     4     5    1
    14     5     6    2
    15     6     7    1
    16     7    23    1
    17    23    24   ar
    18    24    25   ar
    19    25    26   ar
    20    26    27   ar
    21    27    29    1
    22    30    29    1
    23    30    31    1
    24    31    32    1
    25    32    33    1
    26    33    34    1
    27    34    35    1
    28    35    36    1
    29    36    37    1
    30    27    28   ar
    31     7     8    2
    32     8     9    1
    33    13    14   ar
    34    14    15    1
    35    14    16   ar
    36    16    10   ar
    37     9     1    1
    38     8     4    1
    39    28    23   ar
    40    35    30    1
    41    37    35    1
    42    17    18    1
    43    32    38    1
@<TRIPOS>MOLECULE
*****
 38 43 0 0 0
SMALL
GASTEIGER

@<TRIPOS>ATOM
      1 C         143.7077  141.1705  163.4534 C.2     1  UNL1       -0.0155
      2 C         145.0332  141.8064  163.1562 C.2     1  UNL1       -0.0023
      3 C         145.3145  142.3489  161.7863 C.2     1  UNL1        0.0203
      4 C         144.2701  142.2554  160.7137 C.2     1  UNL1        0.1007
      5 N         144.2608  142.6984  159.2806 N.2     1  UNL1       -0.1482
      6 N         142.9294  142.3363  158.6922 N.2     1  UNL1       -0.1467
      7 C         142.1159  141.6694  159.7616 C.2     1  UNL1        0.1199
      8 C         142.9445  141.6194  161.0109 C.2     1  UNL1        0.0225
      9 C         142.6633  141.0770  162.3808 C.3     1  UNL1        0.0559
     10 C         142.8638  139.5431  167.5632 C.ar    1  UNL1        0.0667
     11 C         143.3236  138.6224  166.4718 C.ar    1  UNL1        0.0160
     12 C         143.6049  139.1649  165.1019 C.ar    1  UNL1        0.0032
     13 C         143.4264  140.6280  164.8234 C.ar    1  UNL1        0.0239
     14 C         142.9666  141.5486  165.9147 C.ar    1  UNL1        0.1411
     15 F         142.7881  143.0117  165.6362 F       1  UNL1       -0.2041
     16 C         142.6853  141.0062  167.2846 C.ar    1  UNL1        0.0454
     17 N         142.5825  139.0006  168.9331 N.pl3   1  UNL1       -0.2186
     18 H         142.7448  138.0495  169.1288 H       1  UNL1        0.1734
     19 C         141.5256  140.8141  171.0765 C.3     1  UNL1        0.1996
     20 S         142.0541  139.9073  170.0048 S.O2    1  UNL1        0.0558
     21 O         140.6503  139.5722  169.5961 O.2     1  UNL1       -0.1544
     22 O         143.4579  140.2425  170.4134 O.2     1  UNL1       -0.1544
     23 C         140.7191  141.1447  159.6085 C.ar    1  UNL1        0.1226
     24 C         139.9690  141.3707  158.3293 C.ar    1  UNL1        0.1198
     25 N         138.5721  140.8460  158.1763 N.ar    1  UNL1       -0.2358
     26 C         137.9253  140.0952  159.3023 C.ar    1  UNL1        0.1564
     27 C         138.6755  139.8691  160.5814 C.ar    1  UNL1        0.2447
     28 N         140.0723  140.3939  160.7345 N.ar    1  UNL1       -0.2072
     29 O         138.0287  139.1183  161.7076 O.3     1  UNL1       -0.4615
     30 C         138.3187  139.5013  163.1285 C.3     1  UNL1        0.1830
     31 C         137.7459  140.7662  163.6961 C.3     1  UNL1        0.1127
     32 N         138.0359  141.1493  165.1171 N.3     1  UNL1       -0.2945
     33 C         138.8987  140.2675  165.9705 C.3     1  UNL1        0.0688
     34 C         139.4713  139.0026  165.4029 C.3     1  UNL1        0.0206
     35 C         139.1814  138.6196  163.9819 C.3     1  UNL1        0.0396
     36 C         139.3446  137.6682  162.8337 C.3     1  UNL1        0.0037
     37 C         140.0101  137.3803  164.1469 C.3     1  UNL1        0.0037
     38 H         137.1358  141.2276  165.5904 H       1  UNL1        0.1234
@<TRIPOS>BOND
     1    19    20    1
     2    20    21    2
     3    20    22    2
     4    20    17    1
     5    17    10    1
     6    10    11   ar
     7    11    12   ar
     8    12    13   ar
     9    13     1    1
    10     1     2    2
    11     2     3    1
    12     3     4    2
    13     4     5    1
    14     5     6    2
    15     6     7    1
    16     7    23    1
    17    23    24   ar
    18    24    25   ar
    19    25    26   ar
    20    26    27   ar
    21    27    29    1
    22    30    29    1
    23    30    31    1
    24    31    32    1
    25    32    33    1
    26    33    34    1
    27    34    35    1
    28    35    36    1
    29    36    37    1
    30    27    28   ar
    31     7     8    2
    32     8     9    1
    33    13    14   ar
    34    14    15    1
    35    14    16   ar
    36    16    10   ar
    37     9     1    1
    38     8     4    1
    39    28    23   ar
    40    35    30    1
    41    37    35    1
    42    17    18    1
    43    32    38    1
@<TRIPOS>MOLECULE
*****
 38 43 0 0 0
SMALL
GASTEIGER

@<TRIPOS>ATOM
      1 C         142.2239  139.6994  163.8166 C.2     1  UNL1       -0.0155
      2 C         143.5184  138.9423  163.7840 C.2     1  UNL1       -0.0023
      3 C         144.2134  138.7010  162.4768 C.2     1  UNL1        0.0203
      4 C         143.6138  139.2167  161.2022 C.2     1  UNL1        0.1007
      5 N         144.0663  139.1334  159.7745 N.2     1  UNL1       -0.1482
      6 N         143.0514  139.8389  158.9247 N.2     1  UNL1       -0.1467
      7 C         141.9717  140.3583  159.8273 C.2     1  UNL1        0.1199
      8 C         142.3193  139.9737  161.2348 C.2     1  UNL1        0.0225
      9 C         141.6244  140.2151  162.5420 C.3     1  UNL1        0.0559
     10 C         140.1390  140.4235  167.7382 C.ar    1  UNL1        0.0667
     11 C         139.5863  139.4211  166.7689 C.ar    1  UNL1        0.0160
     12 C         140.2813  139.1797  165.4616 C.ar    1  UNL1        0.0032
     13 C         141.5289  139.9407  165.1238 C.ar    1  UNL1        0.0239
     14 C         142.0816  140.9432  166.0932 C.ar    1  UNL1        0.1411
     15 F         143.3293  141.7042  165.7553 F       1  UNL1       -0.2041
     16 C         141.3867  141.1846  167.4004 C.ar    1  UNL1        0.0454
     17 N         139.4440  140.6649  169.0454 N.pl3   1  UNL1       -0.2186
     18 H         138.4604  140.6732  169.0858 H       1  UNL1        0.1734
     19 C         141.0516  141.1226  171.5367 C.3     1  UNL1        0.1996
     20 S         140.2478  140.8937  170.2910 S.O2    1  UNL1        0.0558
     21 O         140.6756  139.4561  170.2790 O.2     1  UNL1       -0.1544
     22 O         139.8200  142.3313  170.3030 O.2     1  UNL1       -0.1544
     23 C         140.7575  141.1273  159.3977 C.ar    1  UNL1        0.1226
     24 C         140.4476  141.2858  157.9386 C.ar    1  UNL1        0.1198
     25 N         139.2334  142.0547  157.5091 N.ar    1  UNL1       -0.2358
     26 C         138.3292  142.6652  158.5384 C.ar    1  UNL1        0.1564
     27 C         138.6392  142.5067  159.9975 C.ar    1  UNL1        0.2447
     28 N         139.8533  141.7377  160.4271 N.ar    1  UNL1       -0.2072
     29 O         137.7349  143.1171  161.0270 O.3     1  UNL1       -0.4615
     30 C         138.2891  143.5422  162.3545 C.3     1  UNL1        0.1830
     31 C         138.9963  144.8586  162.4851 C.3     1  UNL1        0.1127
     32 N         139.5505  145.2837  163.8125 N.3     1  UNL1       -0.2945
     33 C         139.3974  144.3925  165.0094 C.3     1  UNL1        0.0688
     34 C         138.6902  143.0762  164.8787 C.3     1  UNL1        0.0206
     35 C         138.1360  142.6511  163.5513 C.3     1  UNL1        0.0396
     36 C         137.4077  141.6456  162.7093 C.3     1  UNL1        0.0037
     37 C         137.6393  141.3766  164.1668 C.3     1  UNL1        0.0037
     38 H         139.1050  146.1708  164.0471 H       1  UNL1        0.1234
@<TRIPOS>BOND
     1    19    20    1
     2    20    21    2
     3    20    22    2
     4    20    17    1
     5    17    10    1
     6    10    11   ar
     7    11    12   ar
     8    12    13   ar
     9    13     1    1
    10     1     2    2
    11     2     3    1
    12     3     4    2
    13     4     5    1
    14     5     6    2
    15     6     7    1
    16     7    23    1
    17    23    24   ar
    18    24    25   ar
    19    25    26   ar
    20    26    27   ar
    21    27    29    1
    22    30    29    1
    23    30    31    1
    24    31    32    1
    25    32    33    1
    26    33    34    1
    27    34    35    1
    28    35    36    1
    29    36    37    1
    30    27    28   ar
    31     7     8    2
    32     8     9    1
    33    13    14   ar
    34    14    15    1
    35    14    16   ar
    36    16    10   ar
    37     9     1    1
    38     8     4    1
    39    28    23   ar
    40    35    30    1
    41    37    35    1
    42    17    18    1
    43    32    38    1
@<TRIPOS>MOLECULE
*****
 38 43 0 0 0
SMALL
GASTEIGER

@<TRIPOS>ATOM
      1 C         143.2010  141.4147  163.9874 C.2     1  UNL1       -0.0155
      2 C         144.6526  141.7891  163.9353 C.2     1  UNL1       -0.0023
      3 C         145.2872  142.1509  162.6252 C.2     1  UNL1        0.0203
      4 C         144.4703  142.1382  161.3672 C.2     1  UNL1        0.1007
      5 N         144.8188  142.4456  159.9410 N.2     1  UNL1       -0.1482
      6 N         143.5826  142.2611  159.1117 N.2     1  UNL1       -0.1467
      7 C         142.4701  141.8397  160.0253 C.2     1  UNL1        0.1199
      8 C         143.0187  141.7638  161.4193 C.2     1  UNL1        0.0225
      9 C         142.3841  141.4020  162.7294 C.3     1  UNL1        0.0559
     10 C         141.2969  140.3295  167.9177 C.ar    1  UNL1        0.0667
     11 C         142.3361  139.4315  167.3145 C.ar    1  UNL1        0.0160
     12 C         142.9708  139.7933  166.0044 C.ar    1  UNL1        0.0032
     13 C         142.5663  141.0529  165.2975 C.ar    1  UNL1        0.0239
     14 C         141.5271  141.9509  165.9007 C.ar    1  UNL1        0.1411
     15 F         141.1227  143.2106  165.1938 F       1  UNL1       -0.2041
     16 C         140.8924  141.5892  167.2108 C.ar    1  UNL1        0.0454
     17 N         140.6622  139.9678  169.2277 N.pl3   1  UNL1       -0.2186
     18 H         140.2585  139.0782  169.3502 H       1  UNL1        0.1734
     19 C         140.6230  141.9551  171.4748 C.3     1  UNL1        0.1996
     20 S         140.6426  140.9614  170.3512 S.O2    1  UNL1        0.0558
     21 O         139.1473  141.0364  170.2588 O.2     1  UNL1       -0.1544
     22 O         142.1378  140.8864  170.4437 O.2     1  UNL1       -0.1544
     23 C         141.0571  141.5459  159.6168 C.ar    1  UNL1        0.1226
     24 C         140.6681  141.6006  158.1691 C.ar    1  UNL1        0.1198
     25 N         139.2551  141.3068  157.7605 N.ar    1  UNL1       -0.2358
     26 C         138.2309  140.9582  158.7995 C.ar    1  UNL1        0.1564
     27 C         138.6199  140.9036  160.2472 C.ar    1  UNL1        0.2447
     28 N         140.0329  141.1974  160.6558 N.ar    1  UNL1       -0.2072
     29 O         137.5957  140.5550  161.2863 O.3     1  UNL1       -0.4615
     30 C         138.0138  139.8592  162.5477 C.3     1  UNL1        0.1830
     31 C         138.3935  138.4085  162.5134 C.3     1  UNL1        0.1127
     32 N         138.8116  137.7127  163.7748 N.3     1  UNL1       -0.2945
     33 C         138.8500  138.4676  165.0705 C.3     1  UNL1        0.0688
     34 C         138.4702  139.9183  165.1047 C.3     1  UNL1        0.0206
     35 C         138.0521  140.6141  163.8433 C.3     1  UNL1        0.0396
     36 C         137.5915  141.8535  163.1348 C.3     1  UNL1        0.0037
     37 C         137.8550  141.8875  164.6111 C.3     1  UNL1        0.0037
     38 H         139.7530  137.3540  163.6150 H       1  UNL1        0.1234
@<TRIPOS>BOND
     1    19    20    1
     2    20    21    2
     3    20    22    2
     4    20    17    1
     5    17    10    1
     6    10    11   ar
     7    11    12   ar
     8    12    13   ar
     9    13     1    1
    10     1     2    2
    11     2     3    1
    12     3     4    2
    13     4     5    1
    14     5     6    2
    15     6     7    1
    16     7    23    1
    17    23    24   ar
    18    24    25   ar
    19    25    26   ar
    20    26    27   ar
    21    27    29    1
    22    30    29    1
    23    30    31    1
    24    31    32    1
    25    32    33    1
    26    33    34    1
    27    34    35    1
    28    35    36    1
    29    36    37    1
    30    27    28   ar
    31     7     8    2
    32     8     9    1
    33    13    14   ar
    34    14    15    1
    35    14    16   ar
    36    16    10   ar
    37     9     1    1
    38     8     4    1
    39    28    23   ar
    40    35    30    1
    41    37    35    1
    42    17    18    1
    43    32    38    1
@<TRIPOS>MOLECULE
*****
 38 43 0 0 0
SMALL
GASTEIGER

@<TRIPOS>ATOM
      1 C         142.1739  139.3478  163.1789 C.2     1  UNL1       -0.0155
      2 C         142.8803  138.0780  162.8065 C.2     1  UNL1       -0.0023
      3 C         143.5231  137.9453  161.4577 C.2     1  UNL1        0.0203
      4 C         143.4595  139.0823  160.4814 C.2     1  UNL1        0.1007
      5 N         143.9959  139.2413  159.0896 N.2     1  UNL1       -0.1482
      6 N         143.6209  140.6093  158.6019 N.2     1  UNL1       -0.1467
      7 C         142.8528  141.2958  159.6922 C.2     1  UNL1        0.1199
      8 C         142.7531  140.3520  160.8538 C.2     1  UNL1        0.0225
      9 C         142.1103  140.4847  162.2026 C.3     1  UNL1        0.0559
     10 C         140.2453  139.7461  167.2252 C.ar    1  UNL1        0.0667
     11 C         141.7403  139.7193  167.1063 C.ar    1  UNL1        0.0160
     12 C         142.3832  139.5865  165.7575 C.ar    1  UNL1        0.0032
     13 C         141.5310  139.4805  164.5277 C.ar    1  UNL1        0.0239
     14 C         140.0360  139.5073  164.6466 C.ar    1  UNL1        0.1411
     15 F         139.1838  139.4013  163.4166 F       1  UNL1       -0.2041
     16 C         139.3931  139.6401  165.9953 C.ar    1  UNL1        0.0454
     17 N         139.6024  139.8789  168.5739 N.pl3   1  UNL1       -0.2186
     18 H         138.7127  139.4897  168.7356 H       1  UNL1        0.1734
     19 C         141.0279  141.3304  170.7787 C.3     1  UNL1        0.1996
     20 S         140.3152  140.6046  169.6762 S.O2    1  UNL1        0.0558
     21 O         139.9565  141.9168  169.0442 O.2     1  UNL1       -0.1544
     22 O         140.6738  139.2924  170.3083 O.2     1  UNL1       -0.1544
     23 C         142.2843  142.6825  159.6316 C.ar    1  UNL1        0.1226
     24 C         142.3386  143.4601  158.3500 C.ar    1  UNL1        0.1198
     25 N         141.7701  144.8468  158.2894 N.ar    1  UNL1       -0.2358
     26 C         141.1473  145.4561  159.5104 C.ar    1  UNL1        0.1564
     27 C         141.0930  144.6786  160.7920 C.ar    1  UNL1        0.2447
     28 N         141.6615  143.2919  160.8526 N.ar    1  UNL1       -0.2072
     29 O         140.4701  145.2879  162.0131 O.3     1  UNL1       -0.4615
     30 C         140.5186  144.5587  163.3230 C.3     1  UNL1        0.1830
     31 C         141.8410  144.2372  163.9539 C.3     1  UNL1        0.1127
     32 N         141.8894  143.5080  165.2638 N.3     1  UNL1       -0.2945
     33 C         140.6155  143.1002  165.9429 C.3     1  UNL1        0.0688
     34 C         139.2932  143.4217  165.3119 C.3     1  UNL1        0.0206
     35 C         139.2448  144.1509  164.0020 C.3     1  UNL1        0.0396
     36 C         138.4533  144.7576  162.8814 C.3     1  UNL1        0.0037
     37 C         137.7459  144.1012  164.0297 C.3     1  UNL1        0.0037
     38 H         142.3919  144.1091  165.9170 H       1  UNL1        0.1234
@<TRIPOS>BOND
     1    19    20    1
     2    20    21    2
     3    20    22    2
     4    20    17    1
     5    17    10    1
     6    10    11   ar
     7    11    12   ar
     8    12    13   ar
     9    13     1    1
    10     1     2    2
    11     2     3    1
    12     3     4    2
    13     4     5    1
    14     5     6    2
    15     6     7    1
    16     7    23    1
    17    23    24   ar
    18    24    25   ar
    19    25    26   ar
    20    26    27   ar
    21    27    29    1
    22    30    29    1
    23    30    31    1
    24    31    32    1
    25    32    33    1
    26    33    34    1
    27    34    35    1
    28    35    36    1
    29    36    37    1
    30    27    28   ar
    31     7     8    2
    32     8     9    1
    33    13    14   ar
    34    14    15    1
    35    14    16   ar
    36    16    10   ar
    37     9     1    1
    38     8     4    1
    39    28    23   ar
    40    35    30    1
    41    37    35    1
    42    17    18    1
    43    32    38    1
