@<TRIPOS>MOLECULE
*****
 32 34 0 0 0
SMALL
GASTEIGER

@<TRIPOS>ATOM
      1 N         140.5724  142.8253  167.6735 N.am    1  UNL1       -0.2753
      2 C         141.2924  142.4425  166.4146 C.2     1  UNL1        0.2499
      3 O         142.2905  141.3229  166.4323 O.2     1  UNL1       -0.2698
      4 H         139.9173  143.5601  167.6618 H       1  UNL1        0.1556
      5 C         141.0144  143.1792  165.1379 C.ar    1  UNL1        0.0559
      6 C         142.0662  144.0652  164.5389 C.ar    1  UNL1        0.0048
      7 C         141.7882  144.8019  163.2623 C.ar    1  UNL1        0.0069
      8 C         140.4584  144.6526  162.5845 C.ar    1  UNL1        0.0810
      9 C         139.4066  143.7667  163.1835 C.ar    1  UNL1        0.1446
     10 F         138.0767  143.6175  162.5058 F       1  UNL1       -0.2040
     11 C         139.6846  143.0300  164.4602 C.ar    1  UNL1        0.0343
     12 C         140.1804  145.3894  161.3078 C.2     1  UNL1        0.2512
     13 O         139.1581  146.4868  161.2825 O.2     1  UNL1       -0.2698
     14 N         140.9246  145.0288  160.0565 N.am    1  UNL1       -0.2760
     15 C         141.9469  143.9314  160.0817 C.3     1  UNL1        0.0937
     16 C         142.6912  143.5708  158.8303 C.3     1  UNL1        0.0216
     17 C         142.4132  144.3076  157.5537 C.3     1  UNL1        0.0035
     18 C         141.3909  145.4049  157.5284 C.3     1  UNL1        0.0216
     19 C         140.6466  145.7656  158.7797 C.3     1  UNL1        0.0937
     20 C         140.2405  140.7825  169.3653 C.ar    1  UNL1        0.0740
     21 C         140.8002  140.4153  170.7076 C.ar    1  UNL1        0.0133
     22 C         141.7562  141.4944  171.1222 C.ar    1  UNL1        0.0368
     23 S         141.7871  142.5286  170.0360 S.2     1  UNL1       -0.0715
     24 C         140.8504  142.0885  168.9502 C.ar    1  UNL1        0.0853
     25 C         138.4902  138.9163  166.3314 C.2     1  UNL1        0.4078
     26 O         137.2555  138.3867  166.9986 O.2     1  UNL1       -0.2260
     27 N         139.4851  139.7149  167.1203 N.am    1  UNL1       -0.2174
     28 C         139.2455  139.9839  168.5765 C.2     1  UNL1        0.2557
     29 O         138.0109  139.4543  169.2437 O.2     1  UNL1       -0.2696
     30 H         140.2954  140.0625  166.6824 H       1  UNL1        0.1612
     31 C         139.9751  137.9336  164.4396 C.3     1  UNL1        0.2574
     32 O         138.7299  138.6474  164.8753 O.3     1  UNL1       -0.4303
@<TRIPOS>BOND
     1    31    32    1
     2    32    25    1
     3    25    26    2
     4    25    27   am
     5    27    28   am
     6    28    29    2
     7    28    20    1
     8    20    21   ar
     9    21    22   ar
    10    22    23   ar
    11    23    24   ar
    12    24     1    1
    13     1     2   am
    14     2     3    2
    15     2     5    1
    16     5     6   ar
    17     6     7   ar
    18     7     8   ar
    19     8    12    1
    20    12    13    2
    21    12    14   am
    22    14    15    1
    23    15    16    1
    24    16    17    1
    25    17    18    1
    26    18    19    1
    27     8     9   ar
    28     9    10    1
    29     9    11   ar
    30    24    20   ar
    31    11     5   ar
    32    19    14    1
    33    27    30    1
    34     1     4    1
@<TRIPOS>MOLECULE
*****
 32 34 0 0 0
SMALL
GASTEIGER

@<TRIPOS>ATOM
      1 N         141.7019  141.0113  167.3310 N.am    1  UNL1       -0.2753
      2 C         142.4096  139.7585  166.9071 C.2     1  UNL1        0.2499
      3 O         143.1273  138.9217  167.9242 O.2     1  UNL1       -0.2698
      4 H         141.2308  141.5605  166.6634 H       1  UNL1        0.1556
      5 C         142.3995  139.3425  165.4659 C.ar    1  UNL1        0.0559
      6 C         141.5541  138.1844  165.0254 C.ar    1  UNL1        0.0048
      7 C         141.5441  137.7685  163.5843 C.ar    1  UNL1        0.0069
      8 C         142.3795  138.5107  162.5837 C.ar    1  UNL1        0.0810
      9 C         143.2249  139.6688  163.0241 C.ar    1  UNL1        0.1446
     10 F         144.0602  140.4110  162.0234 F       1  UNL1       -0.2040
     11 C         143.2349  140.0847  164.4652 C.ar    1  UNL1        0.0343
     12 C         142.3694  138.0947  161.1425 C.2     1  UNL1        0.2512
     13 O         143.4404  137.1854  160.6169 O.2     1  UNL1       -0.2698
     14 N         141.2884  138.5879  160.2270 N.am    1  UNL1       -0.2760
     15 C         140.2175  139.4972  160.7526 C.3     1  UNL1        0.0937
     16 C         139.1364  139.9904  159.8371 C.3     1  UNL1        0.0216
     17 C         139.1264  139.5744  158.3960 C.3     1  UNL1        0.0035
     18 C         140.1974  138.6652  157.8704 C.3     1  UNL1        0.0216
     19 C         141.2784  138.1719  158.7858 C.3     1  UNL1        0.0937
     20 C         140.6767  141.0748  169.7989 C.ar    1  UNL1        0.0740
     21 C         141.0840  141.6985  171.1009 C.ar    1  UNL1        0.0133
     22 C         142.3710  142.4364  170.8789 C.ar    1  UNL1        0.0368
     23 S         142.7591  142.2688  169.4396 S.2     1  UNL1       -0.0715
     24 C         141.7120  141.4273  168.7722 C.ar    1  UNL1        0.0853
     25 C         137.2011  139.2620  170.4183 C.2     1  UNL1        0.4078
     26 O         136.9955  138.5838  169.0963 O.2     1  UNL1       -0.2260
     27 N         138.4281  140.0923  170.6525 N.am    1  UNL1       -0.2174
     28 C         139.4497  140.2445  169.5646 C.2     1  UNL1        0.2557
     29 O         139.2441  139.5663  168.2426 O.2     1  UNL1       -0.2696
     30 H         138.5631  140.5375  171.5202 H       1  UNL1        0.1612
     31 C         135.8545  137.7482  172.0445 C.3     1  UNL1        0.2574
     32 O         136.1796  139.1099  171.5062 O.3     1  UNL1       -0.4303
@<TRIPOS>BOND
     1    31    32    1
     2    32    25    1
     3    25    26    2
     4    25    27   am
     5    27    28   am
     6    28    29    2
     7    28    20    1
     8    20    21   ar
     9    21    22   ar
    10    22    23   ar
    11    23    24   ar
    12    24     1    1
    13     1     2   am
    14     2     3    2
    15     2     5    1
    16     5     6   ar
    17     6     7   ar
    18     7     8   ar
    19     8    12    1
    20    12    13    2
    21    12    14   am
    22    14    15    1
    23    15    16    1
    24    16    17    1
    25    17    18    1
    26    18    19    1
    27     8     9   ar
    28     9    10    1
    29     9    11   ar
    30    24    20   ar
    31    11     5   ar
    32    19    14    1
    33    27    30    1
    34     1     4    1
@<TRIPOS>MOLECULE
*****
 32 34 0 0 0
SMALL
GASTEIGER

@<TRIPOS>ATOM
      1 N         140.6264  142.3517  167.3740 N.am    1  UNL1       -0.2753
      2 C         139.8266  141.9544  166.1690 C.2     1  UNL1        0.2499
      3 O         138.9695  140.7240  166.2100 O.2     1  UNL1       -0.2698
      4 H         141.1889  143.1592  167.3471 H       1  UNL1        0.1556
      5 C         139.8838  142.7873  164.9227 C.ar    1  UNL1        0.0559
      6 C         140.9393  143.8426  164.7738 C.ar    1  UNL1        0.0048
      7 C         140.9965  144.6755  163.5277 C.ar    1  UNL1        0.0069
      8 C         139.9982  144.4531  162.4304 C.ar    1  UNL1        0.0810
      9 C         138.9427  143.3978  162.5793 C.ar    1  UNL1        0.1446
     10 F         137.9444  143.1754  161.4821 F       1  UNL1       -0.2040
     11 C         138.8855  142.5649  163.8255 C.ar    1  UNL1        0.0343
     12 C         140.0554  145.2861  161.1842 C.2     1  UNL1        0.2512
     13 O         139.1990  146.5114  161.0611 O.2     1  UNL1       -0.2698
     14 N         140.9691  144.8938  160.0612 N.am    1  UNL1       -0.2760
     15 C         141.8255  143.6685  160.1843 C.3     1  UNL1        0.0937
     16 C         142.7392  143.2762  159.0611 C.3     1  UNL1        0.0216
     17 C         142.7964  144.1091  157.8150 C.3     1  UNL1        0.0035
     18 C         141.9400  145.3344  157.6919 C.3     1  UNL1        0.0216
     19 C         141.0263  145.7267  158.8150 C.3     1  UNL1        0.0937
     20 C         141.2359  140.1907  168.8245 C.ar    1  UNL1        0.0740
     21 C         140.9139  139.7188  170.2115 C.ar    1  UNL1        0.0133
     22 C         140.0481  140.7553  170.8644 C.ar    1  UNL1        0.0368
     23 S         139.8351  141.8677  169.8810 S.2     1  UNL1       -0.0715
     24 C         140.5692  141.5188  168.6203 C.ar    1  UNL1        0.0853
     25 C         142.4280  138.5688  165.4042 C.2     1  UNL1        0.4078
     26 O         143.7590  138.0060  165.8060 O.2     1  UNL1       -0.2260
     27 N         141.5870  139.2971  166.4104 N.am    1  UNL1       -0.2174
     28 C         142.0770  139.4625  167.8184 C.2     1  UNL1        0.2557
     29 O         143.4080  138.8997  168.2203 O.2     1  UNL1       -0.2696
     30 H         140.7134  139.6665  166.1466 H       1  UNL1        0.1612
     31 C         141.1222  137.2015  163.6224 C.3     1  UNL1        0.2574
     32 O         141.9379  138.4034  163.9962 O.3     1  UNL1       -0.4303
@<TRIPOS>BOND
     1    31    32    1
     2    32    25    1
     3    25    26    2
     4    25    27   am
     5    27    28   am
     6    28    29    2
     7    28    20    1
     8    20    21   ar
     9    21    22   ar
    10    22    23   ar
    11    23    24   ar
    12    24     1    1
    13     1     2   am
    14     2     3    2
    15     2     5    1
    16     5     6   ar
    17     6     7   ar
    18     7     8   ar
    19     8    12    1
    20    12    13    2
    21    12    14   am
    22    14    15    1
    23    15    16    1
    24    16    17    1
    25    17    18    1
    26    18    19    1
    27     8     9   ar
    28     9    10    1
    29     9    11   ar
    30    24    20   ar
    31    11     5   ar
    32    19    14    1
    33    27    30    1
    34     1     4    1
@<TRIPOS>MOLECULE
*****
 32 34 0 0 0
SMALL
GASTEIGER

@<TRIPOS>ATOM
      1 N         142.0025  141.4938  167.3541 N.am    1  UNL1       -0.2753
      2 C         142.7153  140.2920  166.8086 C.2     1  UNL1        0.2499
      3 O         143.1433  139.1904  167.7324 O.2     1  UNL1       -0.2698
      4 H         141.7216  142.2168  166.7478 H       1  UNL1        0.1556
      5 C         143.0001  140.1918  165.3392 C.ar    1  UNL1        0.0559
      6 C         142.0639  139.4359  164.4436 C.ar    1  UNL1        0.0048
      7 C         142.3488  139.3357  162.9744 C.ar    1  UNL1        0.0069
      8 C         143.5699  139.9914  162.4007 C.ar    1  UNL1        0.0810
      9 C         144.5061  140.7472  163.2963 C.ar    1  UNL1        0.1446
     10 F         145.7272  141.4029  162.7227 F       1  UNL1       -0.2040
     11 C         144.2212  140.8474  164.7656 C.ar    1  UNL1        0.0343
     12 C         143.8548  139.8912  160.9314 C.2     1  UNL1        0.2512
     13 O         144.4234  138.6251  160.3623 O.2     1  UNL1       -0.2698
     14 N         143.5710  141.0569  160.0312 N.am    1  UNL1       -0.2760
     15 C         143.0024  142.3230  160.6002 C.3     1  UNL1        0.0937
     16 C         142.7186  143.4888  159.6999 C.3     1  UNL1        0.0216
     17 C         143.0035  143.3885  158.2307 C.3     1  UNL1        0.0035
     18 C         143.5721  142.1225  157.6616 C.3     1  UNL1        0.0216
     19 C         143.8559  140.9567  158.5618 C.3     1  UNL1        0.0937
     20 C         140.5571  140.9710  169.5411 C.ar    1  UNL1        0.0740
     21 C         140.6655  141.3268  170.9942 C.ar    1  UNL1        0.0133
     22 C         141.8931  142.1698  171.1747 C.ar    1  UNL1        0.0368
     23 S         142.5433  142.3350  169.8330 S.2     1  UNL1       -0.0715
     24 C         141.7176  141.5940  168.8234 C.ar    1  UNL1        0.0853
     25 C         138.4320  139.0167  166.8180 C.2     1  UNL1        0.4078
     26 O         137.3190  138.4728  167.6638 O.2     1  UNL1       -0.2260
     27 N         139.5114  139.8493  167.4438 N.am    1  UNL1       -0.2174
     28 C         139.4777  140.1383  168.9154 C.2     1  UNL1        0.2557
     29 O         138.3647  139.5945  169.7611 O.2     1  UNL1       -0.2696
     30 H         140.2419  140.2063  166.8887 H       1  UNL1        0.1612
     31 C         138.3152  139.8467  164.3590 C.3     1  UNL1        0.2574
     32 O         138.4658  138.7278  165.3465 O.3     1  UNL1       -0.4303
@<TRIPOS>BOND
     1    31    32    1
     2    32    25    1
     3    25    26    2
     4    25    27   am
     5    27    28   am
     6    28    29    2
     7    28    20    1
     8    20    21   ar
     9    21    22   ar
    10    22    23   ar
    11    23    24   ar
    12    24     1    1
    13     1     2   am
    14     2     3    2
    15     2     5    1
    16     5     6   ar
    17     6     7   ar
    18     7     8   ar
    19     8    12    1
    20    12    13    2
    21    12    14   am
    22    14    15    1
    23    15    16    1
    24    16    17    1
    25    17    18    1
    26    18    19    1
    27     8     9   ar
    28     9    10    1
    29     9    11   ar
    30    24    20   ar
    31    11     5   ar
    32    19    14    1
    33    27    30    1
    34     1     4    1
@<TRIPOS>MOLECULE
*****
 32 34 0 0 0
SMALL
GASTEIGER

@<TRIPOS>ATOM
      1 N         136.5670  141.9883  156.7150 N.am    1  UNL1       -0.2753
      2 C         137.5171  140.9188  157.1661 C.2     1  UNL1        0.2499
      3 O         137.8139  139.7528  156.2705 O.2     1  UNL1       -0.2698
      4 H         136.3722  142.7536  157.3028 H       1  UNL1        0.1556
      5 C         138.1704  141.0154  158.5130 C.ar    1  UNL1        0.0559
      6 C         139.3497  141.9208  158.7113 C.ar    1  UNL1        0.0048
      7 C         140.0030  142.0174  160.0581 C.ar    1  UNL1        0.0069
      8 C         139.4769  141.2085  161.2066 C.ar    1  UNL1        0.0810
      9 C         138.2975  140.3031  161.0083 C.ar    1  UNL1        0.1446
     10 F         137.7714  139.4943  162.1567 F       1  UNL1       -0.2040
     11 C         137.6443  140.2066  159.6615 C.ar    1  UNL1        0.0343
     12 C         140.1302  141.3051  162.5534 C.2     1  UNL1        0.2512
     13 O         141.2149  140.3406  162.9317 O.2     1  UNL1       -0.2698
     14 N         139.6988  142.3662  163.5219 N.am    1  UNL1       -0.2760
     15 C         138.6141  143.3307  163.1436 C.3     1  UNL1        0.0937
     16 C         138.1827  144.3918  164.1121 C.3     1  UNL1        0.0216
     17 C         138.8360  144.4884  165.4589 C.3     1  UNL1        0.0035
     18 C         139.9207  143.5239  165.8372 C.3     1  UNL1        0.0216
     19 C         140.3521  142.4628  164.8688 C.3     1  UNL1        0.0937
     20 C         134.6575  141.1364  155.0496 C.ar    1  UNL1        0.0740
     21 C         134.3694  141.3114  153.5880 C.ar    1  UNL1        0.0133
     22 C         135.4475  142.1749  153.0031 C.ar    1  UNL1        0.0368
     23 S         136.4020  142.5336  154.1034 S.2     1  UNL1       -0.0715
     24 C         135.9137  141.8917  155.3681 C.ar    1  UNL1        0.0853
     25 C         131.5517  139.3256  156.7304 C.2     1  UNL1        0.4078
     26 O         132.1871  138.7622  157.9669 O.2     1  UNL1       -0.2260
     27 N         132.3752  140.1170  155.7581 N.am    1  UNL1       -0.2174
     28 C         133.8341  140.3450  156.0221 C.2     1  UNL1        0.2557
     29 O         134.4695  139.7816  157.2585 O.2     1  UNL1       -0.2696
     30 H         131.9582  140.4868  154.9465 H       1  UNL1        0.1612
     31 C         129.5016  137.7317  156.6521 C.3     1  UNL1        0.2574
     32 O         130.0928  139.0976  156.4664 O.3     1  UNL1       -0.4303
@<TRIPOS>BOND
     1    31    32    1
     2    32    25    1
     3    25    26    2
     4    25    27   am
     5    27    28   am
     6    28    29    2
     7    28    20    1
     8    20    21   ar
     9    21    22   ar
    10    22    23   ar
    11    23    24   ar
    12    24     1    1
    13     1     2   am
    14     2     3    2
    15     2     5    1
    16     5     6   ar
    17     6     7   ar
    18     7     8   ar
    19     8    12    1
    20    12    13    2
    21    12    14   am
    22    14    15    1
    23    15    16    1
    24    16    17    1
    25    17    18    1
    26    18    19    1
    27     8     9   ar
    28     9    10    1
    29     9    11   ar
    30    24    20   ar
    31    11     5   ar
    32    19    14    1
    33    27    30    1
    34     1     4    1
@<TRIPOS>MOLECULE
*****
 32 34 0 0 0
SMALL
GASTEIGER

@<TRIPOS>ATOM
      1 N         141.8964  138.1535  159.4466 N.am    1  UNL1       -0.2753
      2 C         143.0412  138.7994  160.1693 C.2     1  UNL1        0.2499
      3 O         144.1155  139.5037  159.3948 O.2     1  UNL1       -0.2698
      4 H         141.1914  137.6912  159.9550 H       1  UNL1        0.1556
      5 C         143.1118  138.7409  161.6665 C.ar    1  UNL1        0.0559
      6 C         144.1078  139.5859  162.4040 C.ar    1  UNL1        0.0048
      7 C         144.1784  139.5274  163.9011 C.ar    1  UNL1        0.0069
      8 C         143.2528  138.6240  164.6609 C.ar    1  UNL1        0.0810
      9 C         142.2567  137.7791  163.9234 C.ar    1  UNL1        0.1446
     10 F         141.3311  136.8757  164.6832 F       1  UNL1       -0.2040
     11 C         142.1862  137.8376  162.4263 C.ar    1  UNL1        0.0343
     12 C         143.3233  138.5656  166.1581 C.2     1  UNL1        0.2512
     13 O         144.3842  137.7431  166.8274 O.2     1  UNL1       -0.2698
     14 N         142.3330  139.3297  166.9860 N.am    1  UNL1       -0.2760
     15 C         141.2721  140.1522  166.3167 C.3     1  UNL1        0.0937
     16 C         140.2817  140.9163  167.1447 C.3     1  UNL1        0.0216
     17 C         140.3523  140.8578  168.6418 C.3     1  UNL1        0.0035
     18 C         141.4132  140.0353  169.3111 C.3     1  UNL1        0.0216
     19 C         142.4035  139.2713  168.4833 C.3     1  UNL1        0.0937
     20 C         142.3290  137.1639  157.0014 C.ar    1  UNL1        0.0740
     21 C         142.0539  137.6329  155.6035 C.ar    1  UNL1        0.0133
     22 C         141.3807  138.9708  155.6874 C.ar    1  UNL1        0.0368
     23 S         141.2398  139.3286  157.1373 S.2     1  UNL1       -0.0715
     24 C         141.8259  138.2119  157.9494 C.ar    1  UNL1        0.0853
     25 C         143.9935  133.5729  156.7118 C.2     1  UNL1        0.4078
     26 O         144.3151  133.2926  158.1499 O.2     1  UNL1       -0.2260
     27 N         143.3315  134.8633  156.3291 N.am    1  UNL1       -0.2174
     28 C         142.9910  135.8736  157.3843 C.2     1  UNL1        0.2557
     29 O         143.3125  135.5933  158.8224 O.2     1  UNL1       -0.2696
     30 H         143.1205  135.0472  155.3852 H       1  UNL1        0.1612
     31 C         144.9267  131.2412  156.0468 C.3     1  UNL1        0.2574
     32 O         144.3340  132.5627  155.6565 O.3     1  UNL1       -0.4303
@<TRIPOS>BOND
     1    31    32    1
     2    32    25    1
     3    25    26    2
     4    25    27   am
     5    27    28   am
     6    28    29    2
     7    28    20    1
     8    20    21   ar
     9    21    22   ar
    10    22    23   ar
    11    23    24   ar
    12    24     1    1
    13     1     2   am
    14     2     3    2
    15     2     5    1
    16     5     6   ar
    17     6     7   ar
    18     7     8   ar
    19     8    12    1
    20    12    13    2
    21    12    14   am
    22    14    15    1
    23    15    16    1
    24    16    17    1
    25    17    18    1
    26    18    19    1
    27     8     9   ar
    28     9    10    1
    29     9    11   ar
    30    24    20   ar
    31    11     5   ar
    32    19    14    1
    33    27    30    1
    34     1     4    1
@<TRIPOS>MOLECULE
*****
 32 34 0 0 0
SMALL
GASTEIGER

@<TRIPOS>ATOM
      1 N         140.2552  142.0972  167.4364 N.am    1  UNL1       -0.2753
      2 C         140.9197  141.3035  166.3509 C.2     1  UNL1        0.2499
      3 O         142.0261  140.3490  166.6897 O.2     1  UNL1       -0.2698
      4 H         139.5290  142.7237  167.2140 H       1  UNL1        0.1556
      5 C         140.4778  141.4642  164.9265 C.ar    1  UNL1        0.0559
      6 C         141.2325  140.7802  163.8253 C.ar    1  UNL1        0.0048
      7 C         140.7905  140.9410  162.4010 C.ar    1  UNL1        0.0069
      8 C         139.5939  141.7857  162.0778 C.ar    1  UNL1        0.0810
      9 C         138.8392  142.4697  163.1789 C.ar    1  UNL1        0.1446
     10 F         137.6426  143.3145  162.8557 F       1  UNL1       -0.2040
     11 C         139.2811  142.3090  164.6032 C.ar    1  UNL1        0.0343
     12 C         139.1520  141.9465  160.6533 C.2     1  UNL1        0.2512
     13 O         138.1854  140.9690  160.0531 O.2     1  UNL1       -0.2698
     14 N         139.6766  143.0846  159.8292 N.am    1  UNL1       -0.2760
     15 C         140.6432  144.0621  160.4294 C.3     1  UNL1        0.0937
     16 C         141.1679  145.2003  159.6051 C.3     1  UNL1        0.0216
     17 C         140.7260  145.3609  158.1808 C.3     1  UNL1        0.0035
     18 C         139.7594  144.3835  157.5806 C.3     1  UNL1        0.0216
     19 C         139.2347  143.2453  158.4047 C.3     1  UNL1        0.0937
     20 C         140.0889  141.0124  169.8738 C.ar    1  UNL1        0.0740
     21 C         140.8407  141.1765  171.1613 C.ar    1  UNL1        0.0133
     22 C         141.9137  142.2020  170.9442 C.ar    1  UNL1        0.0368
     23 S         141.8250  142.6717  169.5223 S.2     1  UNL1       -0.0715
     24 C         140.6972  141.9365  168.8608 C.ar    1  UNL1        0.0853
     25 C         136.7902  138.8988  170.5073 C.2     1  UNL1        0.4078
     26 O         136.6178  138.2356  169.1730 O.2     1  UNL1       -0.2260
     27 N         137.9472  139.8244  170.7409 N.am    1  UNL1       -0.2174
     28 C         138.9319  140.0868  169.6401 C.2     1  UNL1        0.2557
     29 O         138.7595  139.4237  168.3058 O.2     1  UNL1       -0.2696
     30 H         138.0604  140.2596  171.6167 H       1  UNL1        0.1612
     31 C         135.9025  137.3765  172.4163 C.3     1  UNL1        0.2574
     32 O         135.8056  138.6364  171.6081 O.3     1  UNL1       -0.4303
@<TRIPOS>BOND
     1    31    32    1
     2    32    25    1
     3    25    26    2
     4    25    27   am
     5    27    28   am
     6    28    29    2
     7    28    20    1
     8    20    21   ar
     9    21    22   ar
    10    22    23   ar
    11    23    24   ar
    12    24     1    1
    13     1     2   am
    14     2     3    2
    15     2     5    1
    16     5     6   ar
    17     6     7   ar
    18     7     8   ar
    19     8    12    1
    20    12    13    2
    21    12    14   am
    22    14    15    1
    23    15    16    1
    24    16    17    1
    25    17    18    1
    26    18    19    1
    27     8     9   ar
    28     9    10    1
    29     9    11   ar
    30    24    20   ar
    31    11     5   ar
    32    19    14    1
    33    27    30    1
    34     1     4    1
@<TRIPOS>MOLECULE
*****
 32 34 0 0 0
SMALL
GASTEIGER

@<TRIPOS>ATOM
      1 N         143.0490  137.8346  159.4916 N.am    1  UNL1       -0.2753
      2 C         142.2224  138.6654  160.4278 C.2     1  UNL1        0.2499
      3 O         141.1388  139.5506  159.8873 O.2     1  UNL1       -0.2698
      4 H         143.7602  137.2536  159.8464 H       1  UNL1        0.1556
      5 C         142.4796  138.6111  161.9047 C.ar    1  UNL1        0.0559
      6 C         141.5480  137.8498  162.8006 C.ar    1  UNL1        0.0048
      7 C         141.8052  137.7955  164.2774 C.ar    1  UNL1        0.0069
      8 C         142.9938  138.5025  164.8582 C.ar    1  UNL1        0.0810
      9 C         143.9254  139.2637  163.9623 C.ar    1  UNL1        0.1446
     10 F         145.1140  139.9706  164.5431 F       1  UNL1       -0.2040
     11 C         143.6682  139.3180  162.4855 C.ar    1  UNL1        0.0343
     12 C         143.2510  138.4481  166.3351 C.2     1  UNL1        0.2512
     13 O         144.3744  137.6108  166.8704 O.2     1  UNL1       -0.2698
     14 N         142.3846  139.2312  167.2765 N.am    1  UNL1       -0.2760
     15 C         141.2612  140.0685  166.7411 C.3     1  UNL1        0.0937
     16 C         140.3948  140.8516  167.6826 C.3     1  UNL1        0.0216
     17 C         140.6519  140.7972  169.1594 C.3     1  UNL1        0.0035
     18 C         141.7754  139.9599  169.6947 C.3     1  UNL1        0.0216
     19 C         142.6417  139.1768  168.7533 C.3     1  UNL1        0.0937
     20 C         143.1742  139.0095  157.0939 C.ar    1  UNL1        0.0740
     21 C         142.7259  138.6453  155.7095 C.ar    1  UNL1        0.0133
     22 C         142.0664  137.2996  155.7748 C.ar    1  UNL1        0.0368
     23 S         142.1072  136.8321  157.1996 S.2     1  UNL1       -0.0715
     24 C         142.7918  137.8889  158.0147 C.ar    1  UNL1        0.0853
     25 C         143.8651  142.5820  158.6782 C.2     1  UNL1        0.4078
     26 O         145.2940  142.7986  158.2768 O.2     1  UNL1       -0.2260
     27 N         143.1585  141.3189  158.2839 N.am    1  UNL1       -0.2174
     28 C         143.8809  140.2725  157.4881 C.2     1  UNL1        0.2557
     29 O         145.3098  140.4891  157.0867 O.2     1  UNL1       -0.2696
     30 H         142.2206  141.1768  158.5473 H       1  UNL1        0.1612
     31 C         142.9475  143.4462  160.9499 C.3     1  UNL1        0.2574
     32 O         143.1427  143.6284  159.4739 O.3     1  UNL1       -0.4303
@<TRIPOS>BOND
     1    31    32    1
     2    32    25    1
     3    25    26    2
     4    25    27   am
     5    27    28   am
     6    28    29    2
     7    28    20    1
     8    20    21   ar
     9    21    22   ar
    10    22    23   ar
    11    23    24   ar
    12    24     1    1
    13     1     2   am
    14     2     3    2
    15     2     5    1
    16     5     6   ar
    17     6     7   ar
    18     7     8   ar
    19     8    12    1
    20    12    13    2
    21    12    14   am
    22    14    15    1
    23    15    16    1
    24    16    17    1
    25    17    18    1
    26    18    19    1
    27     8     9   ar
    28     9    10    1
    29     9    11   ar
    30    24    20   ar
    31    11     5   ar
    32    19    14    1
    33    27    30    1
    34     1     4    1
@<TRIPOS>MOLECULE
*****
 32 34 0 0 0
SMALL
GASTEIGER

@<TRIPOS>ATOM
      1 N         143.9936  141.4027  160.2394 N.am    1  UNL1       -0.2753
      2 C         142.9830  140.4503  160.8064 C.2     1  UNL1        0.2499
      3 O         141.8843  139.9166  159.9357 O.2     1  UNL1       -0.2698
      4 H         144.7147  141.7530  160.8109 H       1  UNL1        0.1556
      5 C         143.0708  140.0317  162.2442 C.ar    1  UNL1        0.0559
      6 C         143.9591  140.7829  163.1910 C.ar    1  UNL1        0.0048
      7 C         144.0470  140.3643  164.6287 C.ar    1  UNL1        0.0069
      8 C         143.2465  139.1945  165.1195 C.ar    1  UNL1        0.0810
      9 C         142.3583  138.4433  164.1726 C.ar    1  UNL1        0.1446
     10 F         141.5578  137.2735  164.6634 F       1  UNL1       -0.2040
     11 C         142.2704  138.8619  162.7350 C.ar    1  UNL1        0.0343
     12 C         143.3344  138.7759  166.5573 C.2     1  UNL1        0.2512
     13 O         144.3347  137.7398  166.9770 O.2     1  UNL1       -0.2698
     14 N         142.4221  139.3933  167.5753 N.am    1  UNL1       -0.2760
     15 C         141.4219  140.4293  167.1556 C.3     1  UNL1        0.0937
     16 C         140.5095  141.0467  168.1738 C.3     1  UNL1        0.0216
     17 C         140.5974  140.6281  169.6114 C.3     1  UNL1        0.0035
     18 C         141.5977  139.5921  170.0311 C.3     1  UNL1        0.0216
     19 C         142.5100  138.9747  169.0131 C.3     1  UNL1        0.0937
     20 C         142.9344  142.8106  158.2292 C.ar    1  UNL1        0.0740
     21 C         143.2022  142.9248  156.7577 C.ar    1  UNL1        0.0133
     22 C         144.3390  142.0060  156.4207 C.ar    1  UNL1        0.0368
     23 S         144.7738  141.3239  157.6840 S.2     1  UNL1       -0.0715
     24 C         143.9058  141.8213  158.8016 C.ar    1  UNL1        0.0853
     25 C         139.5347  143.6220  160.1089 C.2     1  UNL1        0.4078
     26 O         139.7724  145.0438  160.5236 O.2     1  UNL1       -0.2260
     27 N         140.5887  142.8776  159.3441 N.am    1  UNL1       -0.2174
     28 C         141.8805  143.5550  158.9939 C.2     1  UNL1        0.2557
     29 O         142.1182  144.9768  159.4086 O.2     1  UNL1       -0.2696
     30 H         140.4327  141.9445  159.0720 H       1  UNL1        0.1612
     31 C         137.9311  142.6182  161.8895 C.3     1  UNL1        0.2574
     32 O         138.2430  142.9446  160.4591 O.3     1  UNL1       -0.4303
@<TRIPOS>BOND
     1    31    32    1
     2    32    25    1
     3    25    26    2
     4    25    27   am
     5    27    28   am
     6    28    29    2
     7    28    20    1
     8    20    21   ar
     9    21    22   ar
    10    22    23   ar
    11    23    24   ar
    12    24     1    1
    13     1     2   am
    14     2     3    2
    15     2     5    1
    16     5     6   ar
    17     6     7   ar
    18     7     8   ar
    19     8    12    1
    20    12    13    2
    21    12    14   am
    22    14    15    1
    23    15    16    1
    24    16    17    1
    25    17    18    1
    26    18    19    1
    27     8     9   ar
    28     9    10    1
    29     9    11   ar
    30    24    20   ar
    31    11     5   ar
    32    19    14    1
    33    27    30    1
    34     1     4    1
