@<TRIPOS>MOLECULE
*****
 29 32 0 0 0
SMALL
GASTEIGER

@<TRIPOS>ATOM
      1 O         139.8655  141.1970  161.9971 O.3     1  UNL1       -0.3470
      2 C         141.3163  140.9445  162.2827 C.3     1  UNL1        0.1467
      3 C         142.6615  137.4476  157.9464 C.3     1  UNL1        0.0896
      4 N         142.4313  138.1949  159.2265 N.3     1  UNL1       -0.2715
      5 C         142.9606  137.6487  160.5193 C.3     1  UNL1        0.0725
      6 C         142.7304  138.3959  161.7994 C.3     1  UNL1        0.0238
      7 C         141.9709  139.6893  161.7866 C.3     1  UNL1        0.0489
      8 C         141.4416  140.2355  160.4938 C.3     1  UNL1        0.0238
      9 C         141.6718  139.4883  159.2137 C.3     1  UNL1        0.0725
     10 C         142.2729  139.5791  163.2518 C.ar    1  UNL1       -0.0204
     11 C         141.8779  138.3454  164.0082 C.ar    1  UNL1       -0.0042
     12 C         142.1799  138.2351  165.4733 C.ar    1  UNL1       -0.0003
     13 C         142.8768  139.3585  166.1821 C.ar    1  UNL1       -0.0000
     14 C         143.2717  140.5922  165.4258 C.ar    1  UNL1       -0.0003
     15 C         142.9698  140.7025  163.9606 C.ar    1  UNL1       -0.0042
     16 C         138.9588  141.6793  163.0904 C.3     1  UNL1        0.1874
     17 C         139.0856  141.1140  164.4740 C.ar    1  UNL1        0.0883
     18 C         138.4872  139.7766  164.7955 C.ar    1  UNL1        0.0211
     19 C         138.6141  139.2113  166.1791 C.ar    1  UNL1        0.0738
     20 C         139.3394  139.9833  167.2412 C.ar    1  UNL1        0.0186
     21 C         139.9378  141.3207  166.9197 C.ar    1  UNL1        0.0583
     22 N         139.8109  141.8861  165.5361 N.ar    1  UNL1       -0.2515
     23 C         138.0157  137.8739  166.5007 C.3     1  UNL1        0.4187
     24 F         137.4173  136.5366  166.8223 F       1  UNL1       -0.1659
     25 F         137.2030  138.5007  167.5947 F       1  UNL1       -0.1659
     26 F         138.8285  137.2472  165.4067 F       1  UNL1       -0.1659
     27 C         140.6630  142.0927  167.9817 C.3     1  UNL1        0.0403
     28 C         141.9424  142.4726  168.6666 C.3     1  UNL1        0.0063
     29 C         140.6400  143.0499  169.1364 C.3     1  UNL1        0.0063
@<TRIPOS>BOND
     1     3     4    1
     2     4     5    1
     3     5     6    1
     4     6     7    1
     5     7     2    1
     6     2     1    1
     7     1    16    1
     8    16    17    1
     9    17    18   ar
    10    18    19   ar
    11    19    23    1
    12    23    24    1
    13    23    25    1
    14    23    26    1
    15    19    20   ar
    16    20    21   ar
    17    21    27    1
    18    27    28    1
    19    28    29    1
    20    21    22   ar
    21     7    10    1
    22    10    11   ar
    23    11    12   ar
    24    12    13   ar
    25    13    14   ar
    26    14    15   ar
    27     7     8    1
    28     8     9    1
    29     9     4    1
    30    22    17   ar
    31    15    10   ar
    32    29    27    1
@<TRIPOS>MOLECULE
*****
 29 32 0 0 0
SMALL
GASTEIGER

@<TRIPOS>ATOM
      1 O         143.1028  138.9886  163.5808 O.3     1  UNL1       -0.3470
      2 C         143.7158  140.2237  164.1714 C.3     1  UNL1        0.1467
      3 C         142.5422  139.0861  169.6642 C.3     1  UNL1        0.0896
      4 N         142.7911  139.6231  168.2859 N.3     1  UNL1       -0.2715
      5 C         142.5975  141.0835  168.0036 C.3     1  UNL1        0.0725
      6 C         142.8464  141.6205  166.6254 C.3     1  UNL1        0.0238
      7 C         143.2890  140.6970  165.5293 C.3     1  UNL1        0.0489
      8 C         143.4826  139.2366  165.8116 C.3     1  UNL1        0.0238
      9 C         143.2337  138.6997  167.1899 C.3     1  UNL1        0.0725
     10 C         143.2436  141.9931  164.7755 C.ar    1  UNL1       -0.0204
     11 C         144.3604  142.3579  163.8430 C.ar    1  UNL1       -0.0042
     12 C         144.3151  143.6539  163.0892 C.ar    1  UNL1       -0.0003
     13 C         143.1528  144.5851  163.2678 C.ar    1  UNL1       -0.0000
     14 C         142.0359  144.2204  164.2003 C.ar    1  UNL1       -0.0003
     15 C         142.0813  142.9243  164.9541 C.ar    1  UNL1       -0.0042
     16 C         141.7750  139.0684  162.8874 C.3     1  UNL1        0.1874
     17 C         140.5541  139.4881  163.6510 C.ar    1  UNL1        0.0883
     18 C         139.8847  138.5232  164.5844 C.ar    1  UNL1        0.0211
     19 C         138.6639  138.9430  165.3480 C.ar    1  UNL1        0.0738
     20 C         138.1123  140.3276  165.1784 C.ar    1  UNL1        0.0186
     21 C         138.7817  141.2925  164.2451 C.ar    1  UNL1        0.0583
     22 N         140.0026  140.8727  163.4814 N.ar    1  UNL1       -0.2515
     23 C         137.9944  137.9782  166.2813 C.3     1  UNL1        0.4187
     24 F         137.3250  137.0134  167.2146 F       1  UNL1       -0.1659
     25 F         138.5476  136.8297  165.4907 F       1  UNL1       -0.1659
     26 F         137.4413  139.1267  167.0719 F       1  UNL1       -0.1659
     27 C         138.2301  142.6770  164.0755 C.3     1  UNL1        0.0403
     28 C         137.8310  143.9975  164.6647 C.3     1  UNL1        0.0063
     29 C         137.6739  143.7547  163.1928 C.3     1  UNL1        0.0063
@<TRIPOS>BOND
     1     3     4    1
     2     4     5    1
     3     5     6    1
     4     6     7    1
     5     7     2    1
     6     2     1    1
     7     1    16    1
     8    16    17    1
     9    17    18   ar
    10    18    19   ar
    11    19    23    1
    12    23    24    1
    13    23    25    1
    14    23    26    1
    15    19    20   ar
    16    20    21   ar
    17    21    27    1
    18    27    28    1
    19    28    29    1
    20    21    22   ar
    21     7    10    1
    22    10    11   ar
    23    11    12   ar
    24    12    13   ar
    25    13    14   ar
    26    14    15   ar
    27     7     8    1
    28     8     9    1
    29     9     4    1
    30    22    17   ar
    31    15    10   ar
    32    29    27    1
@<TRIPOS>MOLECULE
*****
 29 32 0 0 0
SMALL
GASTEIGER

@<TRIPOS>ATOM
      1 O         141.8326  137.9734  162.5858 O.3     1  UNL1       -0.3470
      2 C         140.3776  137.7198  162.8480 C.3     1  UNL1        0.1467
      3 C         138.1538  140.3730  158.2810 C.3     1  UNL1        0.0896
      4 N         138.5491  139.7906  159.6056 N.3     1  UNL1       -0.2715
      5 C         137.7563  140.1190  160.8359 C.3     1  UNL1        0.0725
      6 C         138.1516  139.5366  162.1605 C.3     1  UNL1        0.0238
      7 C         139.3397  138.6258  162.2548 C.3     1  UNL1        0.0489
      8 C         140.1325  138.2975  161.0246 C.3     1  UNL1        0.0238
      9 C         139.7372  138.8799  159.7000 C.3     1  UNL1        0.0725
     10 C         138.9073  138.6395  163.6911 C.ar    1  UNL1       -0.0204
     11 C         138.8908  137.3649  164.4816 C.ar    1  UNL1       -0.0042
     12 C         138.4585  137.3785  165.9179 C.ar    1  UNL1       -0.0003
     13 C         138.0426  138.6669  166.5636 C.ar    1  UNL1       -0.0000
     14 C         138.0590  139.9416  165.7732 C.ar    1  UNL1       -0.0003
     15 C         138.4913  139.9279  164.3369 C.ar    1  UNL1       -0.0042
     16 C         142.7213  138.4561  163.6936 C.3     1  UNL1        0.1874
     17 C         142.2276  139.5011  164.6498 C.ar    1  UNL1        0.0883
     18 C         141.9924  139.1497  166.0890 C.ar    1  UNL1        0.0211
     19 C         141.4987  140.1948  167.0451 C.ar    1  UNL1        0.0738
     20 C         141.2403  141.5911  166.5621 C.ar    1  UNL1        0.0186
     21 C         141.4755  141.9425  165.1229 C.ar    1  UNL1        0.0583
     22 N         141.9692  140.8975  164.1667 N.ar    1  UNL1       -0.2515
     23 C         141.2635  139.8434  168.4843 C.3     1  UNL1        0.4187
     24 F         141.0282  139.4921  169.9235 F       1  UNL1       -0.1659
     25 F         139.9914  140.6383  168.4703 F       1  UNL1       -0.1659
     26 F         142.5355  139.0486  168.4982 F       1  UNL1       -0.1659
     27 C         141.2171  143.3389  164.6399 C.3     1  UNL1        0.0403
     28 C         140.2679  144.4750  164.3983 C.3     1  UNL1        0.0063
     29 C         141.7184  144.6214  164.0451 C.3     1  UNL1        0.0063
@<TRIPOS>BOND
     1     3     4    1
     2     4     5    1
     3     5     6    1
     4     6     7    1
     5     7     2    1
     6     2     1    1
     7     1    16    1
     8    16    17    1
     9    17    18   ar
    10    18    19   ar
    11    19    23    1
    12    23    24    1
    13    23    25    1
    14    23    26    1
    15    19    20   ar
    16    20    21   ar
    17    21    27    1
    18    27    28    1
    19    28    29    1
    20    21    22   ar
    21     7    10    1
    22    10    11   ar
    23    11    12   ar
    24    12    13   ar
    25    13    14   ar
    26    14    15   ar
    27     7     8    1
    28     8     9    1
    29     9     4    1
    30    22    17   ar
    31    15    10   ar
    32    29    27    1
@<TRIPOS>MOLECULE
*****
 29 32 0 0 0
SMALL
GASTEIGER

@<TRIPOS>ATOM
      1 O         143.1058  138.4063  164.3061 O.3     1  UNL1       -0.3470
      2 C         141.7139  137.8856  164.1025 C.3     1  UNL1        0.1467
      3 C         141.3685  138.4793  158.4130 C.3     1  UNL1        0.0896
      4 N         141.2230  138.4161  159.9046 N.3     1  UNL1       -0.2715
      5 C         139.9469  138.8640  160.5533 C.3     1  UNL1        0.0725
      6 C         139.8014  138.8008  162.0449 C.3     1  UNL1        0.0238
      7 C         140.9321  138.2898  162.8878 C.3     1  UNL1        0.0489
      8 C         142.2082  137.8420  162.2391 C.3     1  UNL1        0.0238
      9 C         142.3537  137.9052  160.7475 C.3     1  UNL1        0.0725
     10 C         139.9274  138.5973  163.9584 C.ar    1  UNL1       -0.0204
     11 C         139.4879  137.5208  164.9060 C.ar    1  UNL1       -0.0042
     12 C         138.4833  137.8281  165.9765 C.ar    1  UNL1       -0.0003
     13 C         137.9181  139.2121  166.0995 C.ar    1  UNL1       -0.0000
     14 C         138.3576  140.2887  165.1520 C.ar    1  UNL1       -0.0003
     15 C         139.3623  139.9813  164.0814 C.ar    1  UNL1       -0.0042
     16 C         143.4263  139.2382  165.5125 C.3     1  UNL1        0.1874
     17 C         142.5314  140.3793  165.8960 C.ar    1  UNL1        0.0883
     18 C         141.7181  140.3045  167.1541 C.ar    1  UNL1        0.0211
     19 C         140.8232  141.4456  167.5375 C.ar    1  UNL1        0.0738
     20 C         140.7417  142.6615  166.6629 C.ar    1  UNL1        0.0186
     21 C         141.5551  142.7363  165.4048 C.ar    1  UNL1        0.0583
     22 N         142.4499  141.5952  165.0213 N.ar    1  UNL1       -0.2515
     23 C         140.0098  141.3709  168.7957 C.3     1  UNL1        0.4187
     24 F         139.1964  141.2961  170.0537 F       1  UNL1       -0.1659
     25 F         139.9099  139.8820  168.6426 F       1  UNL1       -0.1659
     26 F         140.1097  142.8597  168.9487 F       1  UNL1       -0.1659
     27 C         141.4735  143.9521  164.5302 C.3     1  UNL1        0.0403
     28 C         142.1444  145.0998  163.8353 C.3     1  UNL1        0.0063
     29 C         140.6617  144.9105  163.7102 C.3     1  UNL1        0.0063
@<TRIPOS>BOND
     1     3     4    1
     2     4     5    1
     3     5     6    1
     4     6     7    1
     5     7     2    1
     6     2     1    1
     7     1    16    1
     8    16    17    1
     9    17    18   ar
    10    18    19   ar
    11    19    23    1
    12    23    24    1
    13    23    25    1
    14    23    26    1
    15    19    20   ar
    16    20    21   ar
    17    21    27    1
    18    27    28    1
    19    28    29    1
    20    21    22   ar
    21     7    10    1
    22    10    11   ar
    23    11    12   ar
    24    12    13   ar
    25    13    14   ar
    26    14    15   ar
    27     7     8    1
    28     8     9    1
    29     9     4    1
    30    22    17   ar
    31    15    10   ar
    32    29    27    1
@<TRIPOS>MOLECULE
*****
 29 32 0 0 0
SMALL
GASTEIGER

@<TRIPOS>ATOM
      1 O         138.2870  139.0937  164.7251 O.3     1  UNL1       -0.3470
      2 C         138.0183  140.4292  164.0972 C.3     1  UNL1        0.1467
      3 C         139.5232  138.9626  158.7656 C.3     1  UNL1        0.0896
      4 N         139.2350  139.5700  160.1064 N.3     1  UNL1       -0.2715
      5 C         139.6562  140.9800  160.3972 C.3     1  UNL1        0.0725
      6 C         139.3680  141.5874  161.7381 C.3     1  UNL1        0.0238
      7 C         138.6586  140.7849  162.7882 C.3     1  UNL1        0.0489
      8 C         138.2375  139.3750  162.4974 C.3     1  UNL1        0.0238
      9 C         138.5257  138.7675  161.1566 C.3     1  UNL1        0.0725
     10 C         138.8574  142.0714  163.5336 C.ar    1  UNL1       -0.0204
     11 C         137.6695  142.8509  164.0143 C.ar    1  UNL1       -0.0042
     12 C         137.8682  144.1373  164.7597 C.ar    1  UNL1       -0.0003
     13 C         139.2550  144.6442  165.0243 C.ar    1  UNL1       -0.0000
     14 C         140.4430  143.8647  164.5436 C.ar    1  UNL1       -0.0003
     15 C         140.2442  142.5783  163.7982 C.ar    1  UNL1       -0.0042
     16 C         138.9933  139.0145  166.0461 C.3     1  UNL1        0.1874
     17 C         140.1872  139.8829  166.3115 C.ar    1  UNL1        0.0883
     18 C         140.1285  140.9320  167.3821 C.ar    1  UNL1        0.0211
     19 C         141.3225  141.8003  167.6473 C.ar    1  UNL1        0.0738
     20 C         142.5751  141.6197  166.8422 C.ar    1  UNL1        0.0186
     21 C         142.6338  140.5706  165.7716 C.ar    1  UNL1        0.0583
     22 N         141.4398  139.7022  165.5062 N.ar    1  UNL1       -0.2515
     23 C         141.2639  142.8494  168.7179 C.3     1  UNL1        0.4187
     24 F         141.2053  143.8984  169.7885 F       1  UNL1       -0.1659
     25 F         142.4169  142.1963  169.4209 F       1  UNL1       -0.1659
     26 F         140.1109  143.5024  168.0149 F       1  UNL1       -0.1659
     27 C         143.8863  140.3900  164.9664 C.3     1  UNL1        0.0403
     28 C         144.9241  139.4908  164.3625 C.3     1  UNL1        0.0063
     29 C         145.0182  140.9761  164.1756 C.3     1  UNL1        0.0063
@<TRIPOS>BOND
     1     3     4    1
     2     4     5    1
     3     5     6    1
     4     6     7    1
     5     7     2    1
     6     2     1    1
     7     1    16    1
     8    16    17    1
     9    17    18   ar
    10    18    19   ar
    11    19    23    1
    12    23    24    1
    13    23    25    1
    14    23    26    1
    15    19    20   ar
    16    20    21   ar
    17    21    27    1
    18    27    28    1
    19    28    29    1
    20    21    22   ar
    21     7    10    1
    22    10    11   ar
    23    11    12   ar
    24    12    13   ar
    25    13    14   ar
    26    14    15   ar
    27     7     8    1
    28     8     9    1
    29     9     4    1
    30    22    17   ar
    31    15    10   ar
    32    29    27    1
@<TRIPOS>MOLECULE
*****
 29 32 0 0 0
SMALL
GASTEIGER

@<TRIPOS>ATOM
      1 O         143.1990  138.6861  163.9295 O.3     1  UNL1       -0.3470
      2 C         141.8186  138.1161  163.7892 C.3     1  UNL1        0.1467
      3 C         141.3469  138.3696  158.0835 C.3     1  UNL1        0.0896
      4 N         141.2315  138.3875  159.5790 N.3     1  UNL1       -0.2715
      5 C         139.9529  138.8286  160.2273 C.3     1  UNL1        0.0725
      6 C         139.8375  138.8465  161.7228 C.3     1  UNL1        0.0238
      7 C         141.0007  138.4232  162.5699 C.3     1  UNL1        0.0489
      8 C         142.2794  137.9821  161.9215 C.3     1  UNL1        0.0238
      9 C         142.3948  137.9643  160.4261 C.3     1  UNL1        0.0725
     10 C         140.0061  138.7577  163.6417 C.ar    1  UNL1       -0.0204
     11 C         139.8051  137.8221  164.7968 C.ar    1  UNL1       -0.0042
     12 C         138.8105  138.1565  165.8686 C.ar    1  UNL1       -0.0003
     13 C         138.0168  139.4266  165.7853 C.ar    1  UNL1       -0.0000
     14 C         138.2178  140.3623  164.6303 C.ar    1  UNL1       -0.0003
     15 C         139.2124  140.0278  163.5584 C.ar    1  UNL1       -0.0042
     16 C         143.5370  139.5513  165.1074 C.3     1  UNL1        0.1874
     17 C         142.4839  140.4235  165.7241 C.ar    1  UNL1        0.0883
     18 C         142.0536  141.6829  165.0323 C.ar    1  UNL1        0.0211
     19 C         141.0006  142.5551  165.6490 C.ar    1  UNL1        0.0738
     20 C         140.3778  142.1678  166.9575 C.ar    1  UNL1        0.0186
     21 C         140.8081  140.9083  167.6493 C.ar    1  UNL1        0.0583
     22 N         141.8612  140.0361  167.0326 N.ar    1  UNL1       -0.2515
     23 C         140.5702  143.8146  164.9572 C.3     1  UNL1        0.4187
     24 F         140.1398  145.0740  164.2655 F       1  UNL1       -0.1659
     25 F         139.1555  143.5699  165.3921 F       1  UNL1       -0.1659
     26 F         141.9848  144.0592  164.5225 F       1  UNL1       -0.1659
     27 C         140.1854  140.5211  168.9578 C.3     1  UNL1        0.0403
     28 C         138.9679  140.3547  169.8183 C.3     1  UNL1        0.0063
     29 C         140.3238  140.0168  170.3637 C.3     1  UNL1        0.0063
@<TRIPOS>BOND
     1     3     4    1
     2     4     5    1
     3     5     6    1
     4     6     7    1
     5     7     2    1
     6     2     1    1
     7     1    16    1
     8    16    17    1
     9    17    18   ar
    10    18    19   ar
    11    19    23    1
    12    23    24    1
    13    23    25    1
    14    23    26    1
    15    19    20   ar
    16    20    21   ar
    17    21    27    1
    18    27    28    1
    19    28    29    1
    20    21    22   ar
    21     7    10    1
    22    10    11   ar
    23    11    12   ar
    24    12    13   ar
    25    13    14   ar
    26    14    15   ar
    27     7     8    1
    28     8     9    1
    29     9     4    1
    30    22    17   ar
    31    15    10   ar
    32    29    27    1
@<TRIPOS>MOLECULE
*****
 29 32 0 0 0
SMALL
GASTEIGER

@<TRIPOS>ATOM
      1 O         143.4535  140.8867  165.5096 O.3     1  UNL1       -0.3470
      2 C         142.5936  139.7641  166.0099 C.3     1  UNL1        0.1467
      3 C         141.2300  141.9052  171.1478 C.3     1  UNL1        0.0896
      4 N         141.3432  141.2772  169.7903 N.3     1  UNL1       -0.2715
      5 C         140.1367  140.6616  169.1458 C.3     1  UNL1        0.0725
      6 C         140.2498  140.0336  167.7883 C.3     1  UNL1        0.0238
      7 C         141.5694  140.0212  167.0753 C.3     1  UNL1        0.0489
      8 C         142.7759  140.6369  167.7198 C.3     1  UNL1        0.0238
      9 C         142.6628  141.2649  169.0773 C.3     1  UNL1        0.0725
     10 C         140.7186  139.3163  166.0608 C.ar    1  UNL1       -0.0204
     11 C         139.2754  139.6922  165.9010 C.ar    1  UNL1       -0.0042
     12 C         138.4245  138.9873  164.8865 C.ar    1  UNL1       -0.0003
     13 C         139.0170  137.9064  164.0319 C.ar    1  UNL1       -0.0000
     14 C         140.4603  137.5303  164.1916 C.ar    1  UNL1       -0.0003
     15 C         141.3111  138.2353  165.2061 C.ar    1  UNL1       -0.0042
     16 C         143.0739  141.6220  164.2585 C.3     1  UNL1        0.1874
     17 C         141.6375  141.9668  163.9978 C.ar    1  UNL1        0.0883
     18 C         140.9598  143.0254  164.8164 C.ar    1  UNL1        0.0211
     19 C         139.5234  143.3701  164.5556 C.ar    1  UNL1        0.0738
     20 C         138.7648  142.6562  163.4764 C.ar    1  UNL1        0.0186
     21 C         139.4425  141.5976  162.6578 C.ar    1  UNL1        0.0583
     22 N         140.8788  141.2528  162.9185 N.ar    1  UNL1       -0.2515
     23 C         138.8456  144.4288  165.3741 C.3     1  UNL1        0.4187
     24 F         138.1679  145.4874  166.1926 F       1  UNL1       -0.1659
     25 F         138.0704  144.8659  164.1666 F       1  UNL1       -0.1659
     26 F         139.6209  143.9916  166.5815 F       1  UNL1       -0.1659
     27 C         138.6838  140.8837  161.5786 C.3     1  UNL1        0.0403
     28 C         137.7237  139.8107  161.1578 C.3     1  UNL1        0.0063
     29 C         138.3297  140.7200  160.1302 C.3     1  UNL1        0.0063
@<TRIPOS>BOND
     1     3     4    1
     2     4     5    1
     3     5     6    1
     4     6     7    1
     5     7     2    1
     6     2     1    1
     7     1    16    1
     8    16    17    1
     9    17    18   ar
    10    18    19   ar
    11    19    23    1
    12    23    24    1
    13    23    25    1
    14    23    26    1
    15    19    20   ar
    16    20    21   ar
    17    21    27    1
    18    27    28    1
    19    28    29    1
    20    21    22   ar
    21     7    10    1
    22    10    11   ar
    23    11    12   ar
    24    12    13   ar
    25    13    14   ar
    26    14    15   ar
    27     7     8    1
    28     8     9    1
    29     9     4    1
    30    22    17   ar
    31    15    10   ar
    32    29    27    1
@<TRIPOS>MOLECULE
*****
 29 32 0 0 0
SMALL
GASTEIGER

@<TRIPOS>ATOM
      1 O         138.0880  139.0298  164.8090 O.3     1  UNL1       -0.3470
      2 C         138.0552  140.3435  164.0856 C.3     1  UNL1        0.1467
      3 C         141.0708  138.6673  159.5097 C.3     1  UNL1        0.0896
      4 N         140.4053  139.3255  160.6818 N.3     1  UNL1       -0.2715
      5 C         140.7587  140.7359  161.0502 C.3     1  UNL1        0.0725
      6 C         140.0932  141.3941  162.2224 C.3     1  UNL1        0.0238
      7 C         139.0743  140.6419  163.0261 C.3     1  UNL1        0.0489
      8 C         138.7210  139.2314  162.6577 C.3     1  UNL1        0.0238
      9 C         139.3865  138.5732  161.4855 C.3     1  UNL1        0.0725
     10 C         139.0738  141.9487  163.7625 C.ar    1  UNL1       -0.0204
     11 C         137.8078  142.7450  163.8761 C.ar    1  UNL1       -0.0042
     12 C         137.8072  144.0518  164.6125 C.ar    1  UNL1       -0.0003
     13 C         139.0727  144.5623  165.2351 C.ar    1  UNL1       -0.0000
     14 C         140.3388  143.7660  165.1215 C.ar    1  UNL1       -0.0003
     15 C         140.3394  142.4592  164.3851 C.ar    1  UNL1       -0.0042
     16 C         138.5974  138.9622  166.2182 C.3     1  UNL1        0.1874
     17 C         139.8893  139.6323  166.5817 C.ar    1  UNL1        0.0883
     18 C         141.1686  139.1982  165.9299 C.ar    1  UNL1        0.0211
     19 C         142.4604  139.8682  166.2934 C.ar    1  UNL1        0.0738
     20 C         142.4730  140.9723  167.3087 C.ar    1  UNL1        0.0186
     21 C         141.1936  141.4064  167.9605 C.ar    1  UNL1        0.0583
     22 N         139.9017  140.7364  167.5970 N.ar    1  UNL1       -0.2515
     23 C         143.7399  139.4342  165.6416 C.3     1  UNL1        0.4187
     24 F         145.0193  139.0002  164.9900 F       1  UNL1       -0.1659
     25 F         143.8185  138.2633  166.5759 F       1  UNL1       -0.1659
     26 F         143.6612  140.6051  164.7075 F       1  UNL1       -0.1659
     27 C         141.2062  142.5105  168.9758 C.3     1  UNL1        0.0403
     28 C         141.8892  143.2371  170.0964 C.3     1  UNL1        0.0063
     29 C         140.5451  143.6962  169.6138 C.3     1  UNL1        0.0063
@<TRIPOS>BOND
     1     3     4    1
     2     4     5    1
     3     5     6    1
     4     6     7    1
     5     7     2    1
     6     2     1    1
     7     1    16    1
     8    16    17    1
     9    17    18   ar
    10    18    19   ar
    11    19    23    1
    12    23    24    1
    13    23    25    1
    14    23    26    1
    15    19    20   ar
    16    20    21   ar
    17    21    27    1
    18    27    28    1
    19    28    29    1
    20    21    22   ar
    21     7    10    1
    22    10    11   ar
    23    11    12   ar
    24    12    13   ar
    25    13    14   ar
    26    14    15   ar
    27     7     8    1
    28     8     9    1
    29     9     4    1
    30    22    17   ar
    31    15    10   ar
    32    29    27    1
@<TRIPOS>MOLECULE
*****
 29 32 0 0 0
SMALL
GASTEIGER

@<TRIPOS>ATOM
      1 O         139.5407  144.5908  163.1760 O.3     1  UNL1       -0.3470
      2 C         141.0257  144.4520  163.3361 C.3     1  UNL1        0.1467
      3 C         142.4348  144.5194  157.7816 C.3     1  UNL1        0.0896
      4 N         142.2418  144.3206  159.2558 N.3     1  UNL1       -0.2715
      5 C         143.0646  143.3035  159.9895 C.3     1  UNL1        0.0725
      6 C         142.8717  143.1047  161.4637 C.3     1  UNL1        0.0238
      7 C         141.8559  143.9231  162.2042 C.3     1  UNL1        0.0489
      8 C         141.0330  144.9402  161.4705 C.3     1  UNL1        0.0238
      9 C         141.2260  145.1390  159.9963 C.3     1  UNL1        0.0725
     10 C         142.3904  143.0896  163.3310 C.ar    1  UNL1       -0.0204
     11 C         143.1901  143.7321  164.4254 C.ar    1  UNL1       -0.0042
     12 C         143.7247  142.8987  165.5521 C.ar    1  UNL1       -0.0003
     13 C         143.4595  141.4227  165.5845 C.ar    1  UNL1       -0.0000
     14 C         142.6598  140.7801  164.4902 C.ar    1  UNL1       -0.0003
     15 C         142.1253  141.6136  163.3634 C.ar    1  UNL1       -0.0042
     16 C         138.6195  144.0617  164.2350 C.3     1  UNL1        0.1874
     17 C         139.0833  142.9730  165.1568 C.ar    1  UNL1        0.0883
     18 C         138.6861  141.5501  164.8966 C.ar    1  UNL1        0.0211
     19 C         139.1500  140.4615  165.8185 C.ar    1  UNL1        0.0738
     20 C         140.0109  140.7957  167.0004 C.ar    1  UNL1        0.0186
     21 C         140.4080  142.2186  167.2606 C.ar    1  UNL1        0.0583
     22 N         139.9442  143.3073  166.3388 N.ar    1  UNL1       -0.2515
     23 C         138.7529  139.0385  165.5583 C.3     1  UNL1        0.4187
     24 F         138.3558  137.6157  165.2982 F       1  UNL1       -0.1659
     25 F         139.8866  138.9000  164.5859 F       1  UNL1       -0.1659
     26 F         137.6192  139.1772  166.5308 F       1  UNL1       -0.1659
     27 C         141.2689  142.5529  168.4426 C.3     1  UNL1        0.0403
     28 C         141.4474  143.2280  169.7702 C.3     1  UNL1        0.0063
     29 C         142.5814  142.4567  169.1624 C.3     1  UNL1        0.0063
@<TRIPOS>BOND
     1     3     4    1
     2     4     5    1
     3     5     6    1
     4     6     7    1
     5     7     2    1
     6     2     1    1
     7     1    16    1
     8    16    17    1
     9    17    18   ar
    10    18    19   ar
    11    19    23    1
    12    23    24    1
    13    23    25    1
    14    23    26    1
    15    19    20   ar
    16    20    21   ar
    17    21    27    1
    18    27    28    1
    19    28    29    1
    20    21    22   ar
    21     7    10    1
    22    10    11   ar
    23    11    12   ar
    24    12    13   ar
    25    13    14   ar
    26    14    15   ar
    27     7     8    1
    28     8     9    1
    29     9     4    1
    30    22    17   ar
    31    15    10   ar
    32    29    27    1
