@<TRIPOS>MOLECULE
*****
 21 22 0 0 0
SMALL
GASTEIGER

@<TRIPOS>ATOM
      1 N         138.7482  139.8464  164.2961 N.3     1  UNL1       -0.2727
      2 C         139.5136  141.0385  164.7891 C.3     1  UNL1        0.0725
      3 C         139.7739  141.2082  166.2565 C.3     1  UNL1        0.0250
      4 C         139.2689  140.1859  167.2310 C.3     1  UNL1        0.0647
      5 C         138.5035  138.9938  166.7380 C.3     1  UNL1        0.0250
      6 C         138.2432  138.8240  165.2706 C.3     1  UNL1        0.0725
      7 C         139.5292  140.3556  168.6984 C.2     1  UNL1        0.1727
      8 O         138.5926  139.7498  169.7013 O.2     1  UNL1       -0.2914
      9 C         140.7262  141.1311  169.1630 C.ar    1  UNL1        0.0347
     10 C         142.0789  140.4830  169.1812 C.ar    1  UNL1        0.0028
     11 C         143.2759  141.2585  169.6458 C.ar    1  UNL1        0.0001
     12 C         143.1202  142.6820  170.0923 C.ar    1  UNL1        0.0000
     13 C         141.7676  143.3300  170.0742 C.ar    1  UNL1        0.0001
     14 C         140.5705  142.5546  169.6095 C.ar    1  UNL1        0.0028
     15 C         138.4879  139.6767  162.8286 C.3     1  UNL1        0.0721
     16 C         139.5033  138.9942  161.9608 C.3     1  UNL1        0.0173
     17 C         140.8209  138.5707  162.5392 C.3     1  UNL1        0.0014
     18 C         140.9392  137.2564  163.2524 C.3     1  UNL1        0.0000
     19 C         141.4814  137.2077  164.6501 C.3     1  UNL1        0.0000
     20 C         143.3371  138.3366  166.0756 C.3     1  UNL1        0.0000
     21 C         142.0783  138.4382  165.2663 C.3     1  UNL1        0.0000
@<TRIPOS>BOND
     1    20    21    1
     2    21    19    1
     3    19    18    1
     4    18    17    1
     5    17    16    1
     6    16    15    1
     7    15     1    1
     8     1     2    1
     9     2     3    1
    10     3     4    1
    11     4     7    1
    12     7     8    2
    13     7     9    1
    14     9    10   ar
    15    10    11   ar
    16    11    12   ar
    17    12    13   ar
    18    13    14   ar
    19     4     5    1
    20     5     6    1
    21     6     1    1
    22    14     9   ar
@<TRIPOS>MOLECULE
*****
 21 22 0 0 0
SMALL
GASTEIGER

@<TRIPOS>ATOM
      1 N         141.8115  139.4992  163.3890 N.3     1  UNL1       -0.2727
      2 C         141.3880  140.7272  164.1390 C.3     1  UNL1        0.0725
      3 C         141.5522  140.7900  165.6287 C.3     1  UNL1        0.0250
      4 C         142.1399  139.6249  166.3683 C.3     1  UNL1        0.0647
      5 C         142.5634  138.3969  165.6182 C.3     1  UNL1        0.0250
      6 C         142.3992  138.3341  164.1285 C.3     1  UNL1        0.0725
      7 C         142.3041  139.6877  167.8579 C.2     1  UNL1        0.1727
      8 O         143.2288  138.7319  168.5515 O.2     1  UNL1       -0.2914
      9 C         141.5435  140.7064  168.6540 C.ar    1  UNL1        0.0347
     10 C         142.1727  142.0298  168.9749 C.ar    1  UNL1        0.0028
     11 C         141.4121  143.0485  169.7710 C.ar    1  UNL1        0.0001
     12 C         140.0224  142.7439  170.2462 C.ar    1  UNL1        0.0000
     13 C         139.3932  141.4206  169.9253 C.ar    1  UNL1        0.0001
     14 C         140.1537  140.4018  169.1292 C.ar    1  UNL1        0.0028
     15 C         141.6473  139.4364  161.8993 C.3     1  UNL1        0.0721
     16 C         140.3679  138.9248  161.3067 C.3     1  UNL1        0.0173
     17 C         139.5158  137.9619  162.0792 C.3     1  UNL1        0.0014
     18 C         138.5778  138.4698  163.1339 C.3     1  UNL1        0.0000
     19 C         138.7854  138.0873  164.5694 C.3     1  UNL1        0.0000
     20 C         137.7462  138.4732  166.9191 C.3     1  UNL1        0.0000
     21 C         138.3581  139.0201  165.6635 C.3     1  UNL1        0.0000
@<TRIPOS>BOND
     1    20    21    1
     2    21    19    1
     3    19    18    1
     4    18    17    1
     5    17    16    1
     6    16    15    1
     7    15     1    1
     8     1     2    1
     9     2     3    1
    10     3     4    1
    11     4     7    1
    12     7     8    2
    13     7     9    1
    14     9    10   ar
    15    10    11   ar
    16    11    12   ar
    17    12    13   ar
    18    13    14   ar
    19     4     5    1
    20     5     6    1
    21     6     1    1
    22    14     9   ar
@<TRIPOS>MOLECULE
*****
 21 22 0 0 0
SMALL
GASTEIGER

@<TRIPOS>ATOM
      1 N         141.4856  144.3005  163.6407 N.3     1  UNL1       -0.2727
      2 C         141.4365  143.2947  162.5289 C.3     1  UNL1        0.0725
      3 C         140.3327  142.2800  162.4838 C.3     1  UNL1        0.0250
      4 C         139.2781  142.2709  163.5503 C.3     1  UNL1        0.0647
      5 C         139.3272  143.2767  164.6621 C.3     1  UNL1        0.0250
      6 C         140.4310  144.2914  164.7073 C.3     1  UNL1        0.0725
      7 C         138.1744  141.2562  163.5052 C.2     1  UNL1        0.1727
      8 O         136.9058  141.5603  162.7648 O.2     1  UNL1       -0.2914
      9 C         138.3392  139.9373  164.2004 C.ar    1  UNL1        0.0347
     10 C         138.8106  138.7383  163.4321 C.ar    1  UNL1        0.0028
     11 C         138.9755  137.4194  164.1273 C.ar    1  UNL1        0.0001
     12 C         138.6689  137.2995  165.5907 C.ar    1  UNL1        0.0000
     13 C         138.1975  138.4984  166.3590 C.ar    1  UNL1        0.0001
     14 C         138.0327  139.8174  165.6638 C.ar    1  UNL1        0.0028
     15 C         142.5893  145.3152  163.6858 C.3     1  UNL1        0.0721
     16 C         143.9518  144.9203  164.1734 C.3     1  UNL1        0.0173
     17 C         144.1150  143.7099  165.0443 C.3     1  UNL1        0.0014
     18 C         144.5961  142.4187  164.4514 C.3     1  UNL1        0.0000
     19 C         143.8109  141.1581  164.6622 C.3     1  UNL1        0.0000
     20 C         141.7613  139.9283  165.6803 C.3     1  UNL1        0.0000
     21 C         142.5257  141.1953  165.4347 C.3     1  UNL1        0.0000
@<TRIPOS>BOND
     1    20    21    1
     2    21    19    1
     3    19    18    1
     4    18    17    1
     5    17    16    1
     6    16    15    1
     7    15     1    1
     8     1     2    1
     9     2     3    1
    10     3     4    1
    11     4     7    1
    12     7     8    2
    13     7     9    1
    14     9    10   ar
    15    10    11   ar
    16    11    12   ar
    17    12    13   ar
    18    13    14   ar
    19     4     5    1
    20     5     6    1
    21     6     1    1
    22    14     9   ar
@<TRIPOS>MOLECULE
*****
 21 22 0 0 0
SMALL
GASTEIGER

@<TRIPOS>ATOM
      1 N         139.3930  139.5641  164.1582 N.3     1  UNL1       -0.2727
      2 C         138.4104  138.8949  165.0728 C.3     1  UNL1        0.0725
      3 C         138.4738  139.1412  166.5511 C.3     1  UNL1        0.0250
      4 C         139.5198  140.0567  167.1147 C.3     1  UNL1        0.0647
      5 C         140.5024  140.7259  166.2001 C.3     1  UNL1        0.0250
      6 C         140.4390  140.4796  164.7218 C.3     1  UNL1        0.0725
      7 C         139.5831  140.3030  168.5930 C.2     1  UNL1        0.1727
      8 O         138.5661  139.6786  169.5017 O.2     1  UNL1       -0.2914
      9 C         140.6635  141.1738  169.1626 C.ar    1  UNL1        0.0347
     10 C         140.3794  142.6128  169.4767 C.ar    1  UNL1        0.0028
     11 C         141.4597  143.4836  170.0464 C.ar    1  UNL1        0.0001
     12 C         142.8242  142.9154  170.3019 C.ar    1  UNL1        0.0000
     13 C         143.1084  141.4765  169.9879 C.ar    1  UNL1        0.0001
     14 C         142.0280  140.6056  169.4182 C.ar    1  UNL1        0.0028
     15 C         139.3297  139.3178  162.6799 C.3     1  UNL1        0.0721
     16 C         138.5492  140.2464  161.7976 C.3     1  UNL1        0.0173
     17 C         137.4769  141.1151  162.3854 C.3     1  UNL1        0.0014
     18 C         137.8139  142.4895  162.8830 C.3     1  UNL1        0.0000
     19 C         137.6828  142.8120  164.3420 C.3     1  UNL1        0.0000
     20 C         139.3161  144.8127  164.0605 C.3     1  UNL1        0.0000
     21 C         138.5094  143.9089  164.9449 C.3     1  UNL1        0.0000
@<TRIPOS>BOND
     1    20    21    1
     2    21    19    1
     3    19    18    1
     4    18    17    1
     5    17    16    1
     6    16    15    1
     7    15     1    1
     8     1     2    1
     9     2     3    1
    10     3     4    1
    11     4     7    1
    12     7     8    2
    13     7     9    1
    14     9    10   ar
    15    10    11   ar
    16    11    12   ar
    17    12    13   ar
    18    13    14   ar
    19     4     5    1
    20     5     6    1
    21     6     1    1
    22    14     9   ar
@<TRIPOS>MOLECULE
*****
 21 22 0 0 0
SMALL
GASTEIGER

@<TRIPOS>ATOM
      1 N         142.1593  141.6387  167.2483 N.3     1  UNL1       -0.2727
      2 C         142.2156  140.1604  167.0002 C.3     1  UNL1        0.0725
      3 C         141.0237  139.4495  166.4310 C.3     1  UNL1        0.0250
      4 C         139.7755  140.2169  166.1099 C.3     1  UNL1        0.0647
      5 C         139.7192  141.6951  166.3581 C.3     1  UNL1        0.0250
      6 C         140.9111  142.4060  166.9272 C.3     1  UNL1        0.0725
      7 C         138.5836  139.5060  165.5408 C.2     1  UNL1        0.1727
      8 O         137.5827  138.8676  166.4576 O.2     1  UNL1       -0.2914
      9 C         138.3926  139.4334  164.0548 C.ar    1  UNL1        0.0347
     10 C         137.8212  140.6059  163.3139 C.ar    1  UNL1        0.0028
     11 C         137.6303  140.5333  161.8279 C.ar    1  UNL1        0.0001
     12 C         138.0107  139.2884  161.0827 C.ar    1  UNL1        0.0000
     13 C         138.5820  138.1159  161.8235 C.ar    1  UNL1        0.0001
     14 C         138.7730  138.1884  163.3096 C.ar    1  UNL1        0.0028
     15 C         143.3512  142.3496  167.8175 C.3     1  UNL1        0.0721
     16 C         143.5570  142.3980  169.3025 C.3     1  UNL1        0.0173
     17 C         142.4800  142.9455  170.1915 C.3     1  UNL1        0.0014
     18 C         141.6936  142.0213  171.0734 C.3     1  UNL1        0.0000
     19 C         141.6716  140.5492  170.7866 C.3     1  UNL1        0.0000
     20 C         139.2379  140.7514  169.8999 C.3     1  UNL1        0.0000
     21 C         140.4706  139.9298  170.1354 C.3     1  UNL1        0.0000
@<TRIPOS>BOND
     1    20    21    1
     2    21    19    1
     3    19    18    1
     4    18    17    1
     5    17    16    1
     6    16    15    1
     7    15     1    1
     8     1     2    1
     9     2     3    1
    10     3     4    1
    11     4     7    1
    12     7     8    2
    13     7     9    1
    14     9    10   ar
    15    10    11   ar
    16    11    12   ar
    17    12    13   ar
    18    13    14   ar
    19     4     5    1
    20     5     6    1
    21     6     1    1
    22    14     9   ar
@<TRIPOS>MOLECULE
*****
 21 22 0 0 0
SMALL
GASTEIGER

@<TRIPOS>ATOM
      1 N         141.3852  144.3561  163.7174 N.3     1  UNL1       -0.2727
      2 C         140.2903  144.3253  164.7421 C.3     1  UNL1        0.0725
      3 C         139.2081  143.2905  164.6526 C.3     1  UNL1        0.0250
      4 C         139.2208  142.2865  163.5383 C.3     1  UNL1        0.0647
      5 C         140.3157  142.3173  162.5135 C.3     1  UNL1        0.0250
      6 C         141.3979  143.3521  162.6031 C.3     1  UNL1        0.0725
      7 C         138.1386  141.2516  163.4487 C.2     1  UNL1        0.1727
      8 O         136.8763  141.5498  162.6954 O.2     1  UNL1       -0.2914
      9 C         138.3188  139.9186  164.1125 C.ar    1  UNL1        0.0347
     10 C         138.1029  139.7815  165.5906 C.ar    1  UNL1        0.0028
     11 C         138.2830  138.4486  166.2544 C.ar    1  UNL1        0.0001
     12 C         138.6791  137.2526  165.4402 C.ar    1  UNL1        0.0000
     13 C         138.8950  137.3897  163.9622 C.ar    1  UNL1        0.0001
     14 C         138.7149  138.7227  163.2983 C.ar    1  UNL1        0.0028
     15 C         142.4673  145.3909  163.8069 C.3     1  UNL1        0.0721
     16 C         143.9022  144.9680  163.9181 C.3     1  UNL1        0.0173
     17 C         144.3338  144.0664  165.0364 C.3     1  UNL1        0.0014
     18 C         144.3560  142.5800  164.8354 C.3     1  UNL1        0.0000
     19 C         145.3990  141.9578  163.9551 C.3     1  UNL1        0.0000
     20 C         144.8926  142.3481  161.4369 C.3     1  UNL1        0.0000
     21 C         145.0190  141.4190  162.6077 C.3     1  UNL1        0.0000
@<TRIPOS>BOND
     1    20    21    1
     2    21    19    1
     3    19    18    1
     4    18    17    1
     5    17    16    1
     6    16    15    1
     7    15     1    1
     8     1     2    1
     9     2     3    1
    10     3     4    1
    11     4     7    1
    12     7     8    2
    13     7     9    1
    14     9    10   ar
    15    10    11   ar
    16    11    12   ar
    17    12    13   ar
    18    13    14   ar
    19     4     5    1
    20     5     6    1
    21     6     1    1
    22    14     9   ar
@<TRIPOS>MOLECULE
*****
 21 22 0 0 0
SMALL
GASTEIGER

@<TRIPOS>ATOM
      1 N         139.0938  139.8042  163.8640 N.3     1  UNL1       -0.2727
      2 C         140.4889  139.6335  163.3400 C.3     1  UNL1        0.0725
      3 C         141.6294  139.4356  164.2939 C.3     1  UNL1        0.0250
      4 C         141.3748  139.4082  165.7719 C.3     1  UNL1        0.0647
      5 C         139.9798  139.5789  166.2959 C.3     1  UNL1        0.0250
      6 C         138.8393  139.7768  165.3419 C.3     1  UNL1        0.0725
      7 C         142.5154  139.2103  166.7259 C.2     1  UNL1        0.1727
      8 O         143.5506  138.1605  166.4497 O.2     1  UNL1       -0.2914
      9 C         142.6207  140.0621  167.9560 C.ar    1  UNL1        0.0347
     10 C         142.8533  141.5385  167.8283 C.ar    1  UNL1        0.0028
     11 C         142.9586  142.3903  169.0584 C.ar    1  UNL1        0.0001
     12 C         142.8314  141.7658  170.4163 C.ar    1  UNL1        0.0000
     13 C         142.5988  140.2895  170.5440 C.ar    1  UNL1        0.0001
     14 C         142.4934  139.4376  169.3139 C.ar    1  UNL1        0.0028
     15 C         137.9533  140.0021  162.9100 C.3     1  UNL1        0.0721
     16 C         137.5756  141.3852  162.4693 C.3     1  UNL1        0.0173
     17 C         137.3293  142.4565  163.4899 C.3     1  UNL1        0.0014
     18 C         138.2813  143.6093  163.6119 C.3     1  UNL1        0.0000
     19 C         138.7183  144.0809  164.9671 C.3     1  UNL1        0.0000
     20 C         141.1172  143.0835  164.9600 C.3     1  UNL1        0.0000
     21 C         139.8357  143.3797  165.6810 C.3     1  UNL1        0.0000
@<TRIPOS>BOND
     1    20    21    1
     2    21    19    1
     3    19    18    1
     4    18    17    1
     5    17    16    1
     6    16    15    1
     7    15     1    1
     8     1     2    1
     9     2     3    1
    10     3     4    1
    11     4     7    1
    12     7     8    2
    13     7     9    1
    14     9    10   ar
    15    10    11   ar
    16    11    12   ar
    17    12    13   ar
    18    13    14   ar
    19     4     5    1
    20     5     6    1
    21     6     1    1
    22    14     9   ar
@<TRIPOS>MOLECULE
*****
 21 22 0 0 0
SMALL
GASTEIGER

@<TRIPOS>ATOM
      1 N         141.8861  139.5297  168.9438 N.3     1  UNL1       -0.2727
      2 C         142.3057  139.4541  167.5057 C.3     1  UNL1        0.0725
      3 C         141.3306  139.8027  166.4206 C.3     1  UNL1        0.0250
      4 C         139.9358  140.2269  166.7735 C.3     1  UNL1        0.0647
      5 C         139.5162  140.3025  168.2116 C.3     1  UNL1        0.0250
      6 C         140.4914  139.9539  169.2968 C.3     1  UNL1        0.0725
      7 C         138.9606  140.5755  165.6884 C.2     1  UNL1        0.1727
      8 O         138.0488  139.5221  165.1326 O.2     1  UNL1       -0.2914
      9 C         138.8973  141.9775  165.1590 C.ar    1  UNL1        0.0347
     10 C         137.8719  142.3440  164.1273 C.ar    1  UNL1        0.0028
     11 C         137.8085  143.7460  163.5979 C.ar    1  UNL1        0.0001
     12 C         138.7705  144.7816  164.1002 C.ar    1  UNL1        0.0000
     13 C         139.7957  144.4151  165.1319 C.ar    1  UNL1        0.0001
     14 C         139.8592  143.0131  165.6613 C.ar    1  UNL1        0.0028
     15 C         142.8613  139.1811  170.0289 C.3     1  UNL1        0.0721
     16 C         143.0574  137.7489  170.4294 C.3     1  UNL1        0.0173
     17 C         144.3387  137.3211  171.0813 C.3     1  UNL1        0.0014
     18 C         144.7239  135.8714  171.0985 C.3     1  UNL1        0.0000
     19 C         144.8268  135.1382  172.4030 C.3     1  UNL1        0.0000
     20 C         146.8871  135.8050  173.8384 C.3     1  UNL1        0.0000
     21 C         146.1741  134.8081  172.9737 C.3     1  UNL1        0.0000
@<TRIPOS>BOND
     1    20    21    1
     2    21    19    1
     3    19    18    1
     4    18    17    1
     5    17    16    1
     6    16    15    1
     7    15     1    1
     8     1     2    1
     9     2     3    1
    10     3     4    1
    11     4     7    1
    12     7     8    2
    13     7     9    1
    14     9    10   ar
    15    10    11   ar
    16    11    12   ar
    17    12    13   ar
    18    13    14   ar
    19     4     5    1
    20     5     6    1
    21     6     1    1
    22    14     9   ar
@<TRIPOS>MOLECULE
*****
 21 22 0 0 0
SMALL
GASTEIGER

@<TRIPOS>ATOM
      1 N         138.5158  138.9147  162.6593 N.3     1  UNL1       -0.2727
      2 C         138.8517  137.6943  163.4640 C.3     1  UNL1        0.0725
      3 C         138.8369  137.7566  164.9627 C.3     1  UNL1        0.0250
      4 C         138.4861  139.0393  165.6566 C.3     1  UNL1        0.0647
      5 C         138.1501  140.2597  164.8519 C.3     1  UNL1        0.0250
      6 C         138.1650  140.1974  163.3532 C.3     1  UNL1        0.0725
      7 C         138.4713  139.1016  167.1552 C.2     1  UNL1        0.1727
      8 O         137.3749  138.4247  167.9232 O.2     1  UNL1       -0.2914
      9 C         139.5528  139.8407  167.8859 C.ar    1  UNL1        0.0347
     10 C         139.2913  140.3898  169.2571 C.ar    1  UNL1        0.0028
     11 C         140.3728  141.1290  169.9878 C.ar    1  UNL1        0.0001
     12 C         141.7158  141.3191  169.3473 C.ar    1  UNL1        0.0000
     13 C         141.9773  140.7700  167.9762 C.ar    1  UNL1        0.0001
     14 C         140.8958  140.0308  167.2454 C.ar    1  UNL1        0.0028
     15 C         138.5306  138.8525  161.1607 C.3     1  UNL1        0.0721
     16 C         139.8259  138.9908  160.4171 C.3     1  UNL1        0.0173
     17 C         141.0823  139.3412  161.1578 C.3     1  UNL1        0.0014
     18 C         142.0675  138.2674  161.5135 C.3     1  UNL1        0.0000
     19 C         142.4853  138.0761  162.9414 C.3     1  UNL1        0.0000
     20 C         143.7314  138.9813  165.0337 C.3     1  UNL1        0.0000
     21 C         143.5149  138.9817  163.5494 C.3     1  UNL1        0.0000
@<TRIPOS>BOND
     1    20    21    1
     2    21    19    1
     3    19    18    1
     4    18    17    1
     5    17    16    1
     6    16    15    1
     7    15     1    1
     8     1     2    1
     9     2     3    1
    10     3     4    1
    11     4     7    1
    12     7     8    2
    13     7     9    1
    14     9    10   ar
    15    10    11   ar
    16    11    12   ar
    17    12    13   ar
    18    13    14   ar
    19     4     5    1
    20     5     6    1
    21     6     1    1
    22    14     9   ar
