@<TRIPOS>MOLECULE
*****
 25 27 0 0 0
SMALL
GASTEIGER

@<TRIPOS>ATOM
      1 N         137.8908  141.3898  162.5228 N.ar    1  UNL1       -0.3165
      2 C         137.6427  140.4349  161.3929 C.ar    1  UNL1        0.0779
      3 C         137.9826  139.0540  161.8700 C.ar    1  UNL1        0.0392
      4 C         138.4408  139.1554  163.2947 C.ar    1  UNL1        0.0985
      5 N         138.9023  138.1198  164.2768 N.ar    1  UNL1       -0.2423
      6 C         139.3071  138.5278  165.6623 C.ar    1  UNL1        0.0989
      7 C         139.2503  139.9714  166.0657 C.ar    1  UNL1        0.0206
      8 C         138.7888  141.0071  165.0837 C.ar    1  UNL1        0.0203
      9 C         138.3840  140.5990  163.6982 C.ar    1  UNL1        0.0782
     10 C         139.6551  140.3794  167.4513 C.ar    1  UNL1        0.0015
     11 C         138.8851  139.8767  168.6363 C.ar    1  UNL1        0.0023
     12 C         139.2899  140.2847  170.0219 C.ar    1  UNL1        0.0295
     13 C         140.4648  141.1954  170.2224 C.ar    1  UNL1        0.1414
     14 F         140.8696  141.6034  171.6079 F       1  UNL1       -0.2043
     15 C         141.2349  141.6981  169.0373 C.ar    1  UNL1        0.0710
     16 C         140.8300  141.2901  167.6518 C.ar    1  UNL1        0.0034
     17 C         142.4097  142.6088  169.2379 C.3     1  UNL1        0.3432
     18 F         143.6166  142.4813  168.3563 F       1  UNL1       -0.1932
     19 F         142.3777  143.6472  170.3200 F       1  UNL1       -0.1932
     20 C         137.6822  142.8747  162.4842 C.3     1  UNL1        0.1920
     21 C         140.5576  145.6100  162.4830 C.3     1  UNL1        0.1150
     22 N         139.4574  144.7104  162.9628 N.am    1  UNL1       -0.2744
     23 C         139.0321  144.7468  164.4007 C.3     1  UNL1        0.1150
     24 C         138.7825  143.7744  162.0045 C.2     1  UNL1        0.2488
     25 O         139.2079  143.7380  160.5665 O.2     1  UNL1       -0.2728
@<TRIPOS>BOND
     1    21    22    1
     2    22    23    1
     3    22    24   am
     4    24    25    2
     5    24    20    1
     6    20     1    1
     7     1     2   ar
     8     2     3   ar
     9     3     4   ar
    10     4     5   ar
    11     5     6   ar
    12     6     7   ar
    13     7    10    1
    14    10    11   ar
    15    11    12   ar
    16    12    13   ar
    17    13    14    1
    18    13    15   ar
    19    15    17    1
    20    17    18    1
    21    17    19    1
    22    15    16   ar
    23     7     8   ar
    24     8     9   ar
    25     9     1   ar
    26     9     4   ar
    27    16    10   ar
@<TRIPOS>MOLECULE
*****
 25 27 0 0 0
SMALL
GASTEIGER

@<TRIPOS>ATOM
      1 N         138.1755  140.1359  162.0190 N.ar    1  UNL1       -0.3165
      2 C         138.1921  139.2891  160.7810 C.ar    1  UNL1        0.0779
      3 C         139.1054  138.1250  161.0280 C.ar    1  UNL1        0.0392
      4 C         139.6531  138.2524  162.4186 C.ar    1  UNL1        0.0985
      5 N         140.6009  137.3973  163.2062 N.ar    1  UNL1       -0.2423
      6 C         140.9740  137.7850  164.6064 C.ar    1  UNL1        0.0989
      7 C         140.3992  139.0278  165.2189 C.ar    1  UNL1        0.0206
      8 C         139.4514  139.8829  164.4312 C.ar    1  UNL1        0.0203
      9 C         139.0784  139.4952  163.0311 C.ar    1  UNL1        0.0782
     10 C         140.7724  139.4155  166.6191 C.ar    1  UNL1        0.0015
     11 C         142.1977  139.3054  167.0732 C.ar    1  UNL1        0.0023
     12 C         142.5708  139.6930  168.4735 C.ar    1  UNL1        0.0295
     13 C         141.5186  140.1908  169.4195 C.ar    1  UNL1        0.1414
     14 F         141.8916  140.5785  170.8197 F       1  UNL1       -0.2043
     15 C         140.0932  140.3009  168.9653 C.ar    1  UNL1        0.0710
     16 C         139.7201  139.9132  167.5651 C.ar    1  UNL1        0.0034
     17 C         139.0409  140.7986  169.9113 C.3     1  UNL1        0.3432
     18 F         137.8866  139.9152  170.2815 F       1  UNL1       -0.1932
     19 F         139.1430  142.1800  170.4873 F       1  UNL1       -0.1932
     20 C         137.3932  141.4012  162.2112 C.3     1  UNL1        0.1920
     21 C         138.9346  145.0289  162.6741 C.3     1  UNL1        0.1150
     22 N         138.3079  143.7040  162.9930 N.am    1  UNL1       -0.2744
     23 C         137.9690  143.3567  164.4123 C.3     1  UNL1        0.1150
     24 C         138.0200  142.7263  161.8924 C.2     1  UNL1        0.2488
     25 O         138.3588  143.0735  160.4731 O.2     1  UNL1       -0.2728
@<TRIPOS>BOND
     1    21    22    1
     2    22    23    1
     3    22    24   am
     4    24    25    2
     5    24    20    1
     6    20     1    1
     7     1     2   ar
     8     2     3   ar
     9     3     4   ar
    10     4     5   ar
    11     5     6   ar
    12     6     7   ar
    13     7    10    1
    14    10    11   ar
    15    11    12   ar
    16    12    13   ar
    17    13    14    1
    18    13    15   ar
    19    15    17    1
    20    17    18    1
    21    17    19    1
    22    15    16   ar
    23     7     8   ar
    24     8     9   ar
    25     9     1   ar
    26     9     4   ar
    27    16    10   ar
@<TRIPOS>MOLECULE
*****
 25 27 0 0 0
SMALL
GASTEIGER

@<TRIPOS>ATOM
      1 N         141.8754  144.0015  160.7608 N.ar    1  UNL1       -0.3165
      2 C         141.3690  145.0547  159.8204 C.ar    1  UNL1        0.0779
      3 C         140.0754  145.5813  160.3676 C.ar    1  UNL1        0.0392
      4 C         139.7824  144.8536  161.6461 C.ar    1  UNL1        0.0985
      5 N         138.6463  144.9538  162.6204 N.ar    1  UNL1       -0.2423
      6 C         138.6227  144.0777  163.8376 C.ar    1  UNL1        0.0989
      7 C         139.7352  143.1013  164.0807 C.ar    1  UNL1        0.0206
      8 C         140.8713  143.0010  163.1064 C.ar    1  UNL1        0.0203
      9 C         140.8949  143.8772  161.8891 C.ar    1  UNL1        0.0782
     10 C         139.7116  142.2252  165.2980 C.ar    1  UNL1        0.0015
     11 C         140.4140  142.6612  166.5496 C.ar    1  UNL1        0.0023
     12 C         140.3903  141.7850  167.7670 C.ar    1  UNL1        0.0295
     13 C         139.6642  140.4729  167.7327 C.ar    1  UNL1        0.1414
     14 F         139.6406  139.5968  168.9499 F       1  UNL1       -0.2043
     15 C         138.9618  140.0370  166.4810 C.ar    1  UNL1        0.0710
     16 C         138.9855  140.9131  165.2637 C.ar    1  UNL1        0.0034
     17 C         138.2357  138.7248  166.4467 C.3     1  UNL1        0.3432
     18 F         138.6465  137.6658  165.4671 F       1  UNL1       -0.1932
     19 F         137.0988  138.4719  167.3920 F       1  UNL1       -0.1932
     20 C         143.1403  143.2112  160.6009 C.3     1  UNL1        0.1920
     21 C         145.6996  141.8000  163.2858 C.3     1  UNL1        0.1150
     22 N         144.6986  141.8471  162.1697 N.am    1  UNL1       -0.2744
     23 C         144.2549  140.5771  161.5062 C.3     1  UNL1        0.1150
     24 C         144.1414  143.1641  161.7171 C.2     1  UNL1        0.2488
     25 O         144.5851  144.4341  162.3807 O.2     1  UNL1       -0.2728
@<TRIPOS>BOND
     1    21    22    1
     2    22    23    1
     3    22    24   am
     4    24    25    2
     5    24    20    1
     6    20     1    1
     7     1     2   ar
     8     2     3   ar
     9     3     4   ar
    10     4     5   ar
    11     5     6   ar
    12     6     7   ar
    13     7    10    1
    14    10    11   ar
    15    11    12   ar
    16    12    13   ar
    17    13    14    1
    18    13    15   ar
    19    15    17    1
    20    17    18    1
    21    17    19    1
    22    15    16   ar
    23     7     8   ar
    24     8     9   ar
    25     9     1   ar
    26     9     4   ar
    27    16    10   ar
@<TRIPOS>MOLECULE
*****
 25 27 0 0 0
SMALL
GASTEIGER

@<TRIPOS>ATOM
      1 N         138.0394  140.2192  162.7049 N.ar    1  UNL1       -0.3165
      2 C         137.7413  139.1260  161.7220 C.ar    1  UNL1        0.0779
      3 C         138.7126  138.0086  161.9629 C.ar    1  UNL1        0.0392
      4 C         139.6110  138.4112  163.0946 C.ar    1  UNL1        0.0985
      5 N         140.7541  137.7102  163.7668 N.ar    1  UNL1       -0.2423
      6 C         141.4812  138.3755  164.8976 C.ar    1  UNL1        0.0989
      7 C         141.0651  139.7417  165.3562 C.ar    1  UNL1        0.0206
      8 C         139.9220  140.4427  164.6840 C.ar    1  UNL1        0.0203
      9 C         139.1949  139.7774  163.5533 C.ar    1  UNL1        0.0782
     10 C         141.7923  140.4070  166.4870 C.ar    1  UNL1        0.0015
     11 C         142.4692  141.7278  166.2696 C.ar    1  UNL1        0.0023
     12 C         143.1963  142.3930  167.4005 C.ar    1  UNL1        0.0295
     13 C         143.2466  141.7374  168.7487 C.ar    1  UNL1        0.1414
     14 F         143.9737  142.4026  169.8795 F       1  UNL1       -0.2043
     15 C         142.5696  140.4166  168.9661 C.ar    1  UNL1        0.0710
     16 C         141.8425  139.7514  167.8353 C.ar    1  UNL1        0.0034
     17 C         142.6199  139.7610  170.3143 C.3     1  UNL1        0.3432
     18 F         142.9766  138.3086  170.4292 F       1  UNL1       -0.1932
     19 F         142.3133  140.5579  171.5476 F       1  UNL1       -0.1932
     20 C         137.3101  141.5249  162.8195 C.3     1  UNL1        0.1920
     21 C         138.9814  145.1205  162.6509 C.3     1  UNL1        0.1150
     22 N         138.3669  143.8675  163.2008 N.am    1  UNL1       -0.2744
     23 C         138.1948  143.7041  164.6819 C.3     1  UNL1        0.1150
     24 C         137.9246  142.7780  162.2696 C.2     1  UNL1        0.2488
     25 O         138.0967  142.9415  160.7885 O.2     1  UNL1       -0.2728
@<TRIPOS>BOND
     1    21    22    1
     2    22    23    1
     3    22    24   am
     4    24    25    2
     5    24    20    1
     6    20     1    1
     7     1     2   ar
     8     2     3   ar
     9     3     4   ar
    10     4     5   ar
    11     5     6   ar
    12     6     7   ar
    13     7    10    1
    14    10    11   ar
    15    11    12   ar
    16    12    13   ar
    17    13    14    1
    18    13    15   ar
    19    15    17    1
    20    17    18    1
    21    17    19    1
    22    15    16   ar
    23     7     8   ar
    24     8     9   ar
    25     9     1   ar
    26     9     4   ar
    27    16    10   ar
@<TRIPOS>MOLECULE
*****
 25 27 0 0 0
SMALL
GASTEIGER

@<TRIPOS>ATOM
      1 N         141.8216  143.8043  160.7986 N.ar    1  UNL1       -0.3165
      2 C         141.4334  145.1513  160.2648 C.ar    1  UNL1        0.0779
      3 C         140.0198  145.4262  160.6845 C.ar    1  UNL1        0.0392
      4 C         139.5343  144.2492  161.4776 C.ar    1  UNL1        0.0985
      5 N         138.2222  143.9608  162.1447 N.ar    1  UNL1       -0.2423
      6 C         138.0237  142.6699  162.8823 C.ar    1  UNL1        0.0989
      7 C         139.1373  141.6674  162.9528 C.ar    1  UNL1        0.0206
      8 C         140.4494  141.9559  162.2858 C.ar    1  UNL1        0.0203
      9 C         140.6480  143.2468  161.5481 C.ar    1  UNL1        0.0782
     10 C         138.9387  140.3765  163.6905 C.ar    1  UNL1        0.0015
     11 C         139.0751  139.0701  162.9661 C.ar    1  UNL1        0.0023
     12 C         138.8765  137.7792  163.7038 C.ar    1  UNL1        0.0295
     13 C         138.5416  137.7947  165.1658 C.ar    1  UNL1        0.1414
     14 F         138.3430  136.5038  165.9035 F       1  UNL1       -0.2043
     15 C         138.4052  139.1011  165.8902 C.ar    1  UNL1        0.0710
     16 C         138.6038  140.3920  165.1526 C.ar    1  UNL1        0.0034
     17 C         138.0703  139.1166  167.3523 C.3     1  UNL1        0.3432
     18 F         136.9084  138.3179  167.8641 F       1  UNL1       -0.1932
     19 F         138.8974  139.9309  168.3026 F       1  UNL1       -0.1932
     20 C         143.1502  143.1327  160.6151 C.3     1  UNL1        0.1920
     21 C         145.6937  141.7949  163.3521 C.3     1  UNL1        0.1150
     22 N         144.7003  141.8117  162.2284 N.am    1  UNL1       -0.2744
     23 C         144.2635  140.5245  161.5940 C.3     1  UNL1        0.1150
     24 C         144.1437  143.1158  161.7389 C.2     1  UNL1        0.2488
     25 O         144.5805  144.4029  162.3732 O.2     1  UNL1       -0.2728
@<TRIPOS>BOND
     1    21    22    1
     2    22    23    1
     3    22    24   am
     4    24    25    2
     5    24    20    1
     6    20     1    1
     7     1     2   ar
     8     2     3   ar
     9     3     4   ar
    10     4     5   ar
    11     5     6   ar
    12     6     7   ar
    13     7    10    1
    14    10    11   ar
    15    11    12   ar
    16    12    13   ar
    17    13    14    1
    18    13    15   ar
    19    15    17    1
    20    17    18    1
    21    17    19    1
    22    15    16   ar
    23     7     8   ar
    24     8     9   ar
    25     9     1   ar
    26     9     4   ar
    27    16    10   ar
@<TRIPOS>MOLECULE
*****
 25 27 0 0 0
SMALL
GASTEIGER

@<TRIPOS>ATOM
      1 N         141.5193  144.0620  161.7279 N.ar    1  UNL1       -0.3165
      2 C         140.9057  145.1788  160.9365 C.ar    1  UNL1        0.0779
      3 C         139.7926  145.7673  161.7516 C.ar    1  UNL1        0.0392
      4 C         139.7182  145.0143  163.0468 C.ar    1  UNL1        0.0985
      5 N         138.8165  145.1522  164.2375 N.ar    1  UNL1       -0.2423
      6 C         138.9821  144.2361  165.4137 C.ar    1  UNL1        0.0989
      7 C         140.0493  143.1822  165.3990 C.ar    1  UNL1        0.0206
      8 C         140.9510  143.0443  164.2083 C.ar    1  UNL1        0.0203
      9 C         140.7854  143.9604  163.0321 C.ar    1  UNL1        0.0782
     10 C         140.2149  142.2660  166.5753 C.ar    1  UNL1        0.0015
     11 C         139.8944  140.8069  166.4404 C.ar    1  UNL1        0.0023
     12 C         140.0599  139.8908  167.6166 C.ar    1  UNL1        0.0295
     13 C         140.5460  140.4339  168.9277 C.ar    1  UNL1        0.1414
     14 F         140.7116  139.5179  170.1038 F       1  UNL1       -0.2043
     15 C         140.8665  141.8931  169.0625 C.ar    1  UNL1        0.0710
     16 C         140.7009  142.8091  167.8863 C.ar    1  UNL1        0.0034
     17 C         141.3526  142.4362  170.3735 C.3     1  UNL1        0.3432
     18 F         140.6227  142.1020  171.6406 F       1  UNL1       -0.1932
     19 F         142.5685  143.3135  170.4174 F       1  UNL1       -0.1932
     20 C         142.6656  143.1985  161.2917 C.3     1  UNL1        0.1920
     21 C         145.7592  141.8006  163.3475 C.3     1  UNL1        0.1150
     22 N         144.4989  141.8407  162.5351 N.am    1  UNL1       -0.2744
     23 C         143.8116  140.5632  162.1535 C.3     1  UNL1        0.1150
     24 C         143.9260  143.1583  162.1042 C.2     1  UNL1        0.2488
     25 O         144.6134  144.4358  162.4857 O.2     1  UNL1       -0.2728
@<TRIPOS>BOND
     1    21    22    1
     2    22    23    1
     3    22    24   am
     4    24    25    2
     5    24    20    1
     6    20     1    1
     7     1     2   ar
     8     2     3   ar
     9     3     4   ar
    10     4     5   ar
    11     5     6   ar
    12     6     7   ar
    13     7    10    1
    14    10    11   ar
    15    11    12   ar
    16    12    13   ar
    17    13    14    1
    18    13    15   ar
    19    15    17    1
    20    17    18    1
    21    17    19    1
    22    15    16   ar
    23     7     8   ar
    24     8     9   ar
    25     9     1   ar
    26     9     4   ar
    27    16    10   ar
@<TRIPOS>MOLECULE
*****
 25 27 0 0 0
SMALL
GASTEIGER

@<TRIPOS>ATOM
      1 N         141.5015  138.3604  162.7771 N.ar    1  UNL1       -0.3165
      2 C         140.4503  137.8505  161.8364 C.ar    1  UNL1        0.0779
      3 C         139.1192  137.9772  162.5162 C.ar    1  UNL1        0.0392
      4 C         139.3478  138.5654  163.8770 C.ar    1  UNL1        0.0985
      5 N         138.4055  138.9160  164.9901 N.ar    1  UNL1       -0.2423
      6 C         138.9355  139.5034  166.2645 C.ar    1  UNL1        0.0989
      7 C         140.4079  139.7402  166.4257 C.ar    1  UNL1        0.0206
      8 C         141.3502  139.3897  165.3126 C.ar    1  UNL1        0.0203
      9 C         140.8202  138.8023  164.0382 C.ar    1  UNL1        0.0782
     10 C         140.9379  140.3276  167.7001 C.ar    1  UNL1        0.0015
     11 C         142.1431  139.7252  168.3593 C.ar    1  UNL1        0.0023
     12 C         142.6731  140.3126  169.6338 C.ar    1  UNL1        0.0295
     13 C         141.9979  141.5025  170.2489 C.ar    1  UNL1        0.1414
     14 F         142.5279  142.0899  171.5232 F       1  UNL1       -0.2043
     15 C         140.7927  142.1049  169.5896 C.ar    1  UNL1        0.0710
     16 C         140.2627  141.5175  168.3152 C.ar    1  UNL1        0.0034
     17 C         140.1175  143.2948  170.2047 C.3     1  UNL1        0.3432
     18 F         140.6244  144.6768  169.9166 F       1  UNL1       -0.1932
     19 F         138.9354  143.1025  171.1079 F       1  UNL1       -0.1932
     20 C         142.9754  138.4184  162.5045 C.3     1  UNL1        0.1920
     21 C         145.3186  141.5965  162.9030 C.3     1  UNL1        0.1150
     22 N         144.6585  140.2785  163.1806 N.am    1  UNL1       -0.2744
     23 C         145.0214  139.5026  164.4120 C.3     1  UNL1        0.1150
     24 C         143.6356  139.7364  162.2268 C.2     1  UNL1        0.2488
     25 O         143.2728  140.5124  160.9955 O.2     1  UNL1       -0.2728
@<TRIPOS>BOND
     1    21    22    1
     2    22    23    1
     3    22    24   am
     4    24    25    2
     5    24    20    1
     6    20     1    1
     7     1     2   ar
     8     2     3   ar
     9     3     4   ar
    10     4     5   ar
    11     5     6   ar
    12     6     7   ar
    13     7    10    1
    14    10    11   ar
    15    11    12   ar
    16    12    13   ar
    17    13    14    1
    18    13    15   ar
    19    15    17    1
    20    17    18    1
    21    17    19    1
    22    15    16   ar
    23     7     8   ar
    24     8     9   ar
    25     9     1   ar
    26     9     4   ar
    27    16    10   ar
@<TRIPOS>MOLECULE
*****
 25 27 0 0 0
SMALL
GASTEIGER

@<TRIPOS>ATOM
      1 N         139.4827  140.8133  162.1135 N.ar    1  UNL1       -0.3165
      2 C         138.6551  139.7327  161.4831 C.ar    1  UNL1        0.0779
      3 C         138.2726  138.7565  162.5558 C.ar    1  UNL1        0.0392
      4 C         138.8638  139.2337  163.8491 C.ar    1  UNL1        0.0985
      5 N         138.8177  138.6750  165.2404 N.ar    1  UNL1       -0.2423
      6 C         139.5195  139.3874  166.3583 C.ar    1  UNL1        0.0989
      7 C         140.2675  140.6586  166.0850 C.ar    1  UNL1        0.0206
      8 C         140.3136  141.2173  164.6937 C.ar    1  UNL1        0.0203
      9 C         139.6117  140.5049  163.5758 C.ar    1  UNL1        0.0782
     10 C         140.9693  141.3710  167.2030 C.ar    1  UNL1        0.0015
     11 C         142.4553  141.2401  167.3599 C.ar    1  UNL1        0.0023
     12 C         143.1572  141.9525  168.4779 C.ar    1  UNL1        0.0295
     13 C         142.3730  142.7959  169.4390 C.ar    1  UNL1        0.1414
     14 F         143.0748  143.5083  170.5570 F       1  UNL1       -0.2043
     15 C         140.8869  142.9268  169.2821 C.ar    1  UNL1        0.0710
     16 C         140.1851  142.2144  168.1641 C.ar    1  UNL1        0.0034
     17 C         140.1027  143.7702  170.2432 C.3     1  UNL1        0.3432
     18 F         139.0822  143.1338  171.1395 F       1  UNL1       -0.1932
     19 F         140.3391  145.2501  170.3080 F       1  UNL1       -0.1932
     20 C         140.0771  141.9948  161.4059 C.3     1  UNL1        0.1920
     21 C         139.7613  145.9251  161.8569 C.3     1  UNL1        0.1150
     22 N         140.3630  144.5629  161.6775 N.am    1  UNL1       -0.2744
     23 C         141.8522  144.4063  161.5901 C.3     1  UNL1        0.1150
     24 C         139.4754  143.3572  161.5854 C.2     1  UNL1        0.2488
     25 O         137.9862  143.5137  161.6727 O.2     1  UNL1       -0.2728
@<TRIPOS>BOND
     1    21    22    1
     2    22    23    1
     3    22    24   am
     4    24    25    2
     5    24    20    1
     6    20     1    1
     7     1     2   ar
     8     2     3   ar
     9     3     4   ar
    10     4     5   ar
    11     5     6   ar
    12     6     7   ar
    13     7    10    1
    14    10    11   ar
    15    11    12   ar
    16    12    13   ar
    17    13    14    1
    18    13    15   ar
    19    15    17    1
    20    17    18    1
    21    17    19    1
    22    15    16   ar
    23     7     8   ar
    24     8     9   ar
    25     9     1   ar
    26     9     4   ar
    27    16    10   ar
@<TRIPOS>MOLECULE
*****
 25 27 0 0 0
SMALL
GASTEIGER

@<TRIPOS>ATOM
      1 N         142.0904  138.7477  162.8184 N.ar    1  UNL1       -0.3165
      2 C         141.3730  138.1151  161.6629 C.ar    1  UNL1        0.0779
      3 C         139.9292  137.9638  162.0404 C.ar    1  UNL1        0.0392
      4 C         139.7543  138.5029  163.4292 C.ar    1  UNL1        0.0985
      5 N         138.5513  138.6153  164.3181 N.ar    1  UNL1       -0.2423
      6 C         138.6840  139.2121  165.6878 C.ar    1  UNL1        0.0989
      7 C         140.0197  139.6966  166.1686 C.ar    1  UNL1        0.0206
      8 C         141.2227  139.5842  165.2797 C.ar    1  UNL1        0.0203
      9 C         141.0900  138.9874  163.9100 C.ar    1  UNL1        0.0782
     10 C         140.1524  140.2934  167.5384 C.ar    1  UNL1        0.0015
     11 C         139.1110  140.0158  168.5816 C.ar    1  UNL1        0.0023
     12 C         139.2437  140.6127  169.9514 C.ar    1  UNL1        0.0295
     13 C         140.4179  141.4871  170.2779 C.ar    1  UNL1        0.1414
     14 F         140.5506  142.0839  171.6476 F       1  UNL1       -0.2043
     15 C         141.4594  141.7647  169.2347 C.ar    1  UNL1        0.0710
     16 C         141.3266  141.1678  167.8650 C.ar    1  UNL1        0.0034
     17 C         142.6336  142.6391  169.5612 C.3     1  UNL1        0.3432
     18 F         142.4376  143.8863  170.3711 F       1  UNL1       -0.1932
     19 F         144.0038  142.2662  169.0778 F       1  UNL1       -0.1932
     20 C         143.5517  139.0820  162.8727 C.3     1  UNL1        0.1920
     21 C         144.5446  142.6959  161.5674 C.3     1  UNL1        0.1150
     22 N         144.1025  141.2626  161.5720 N.am    1  UNL1       -0.2744
     23 C         143.7689  140.5765  160.2805 C.3     1  UNL1        0.1150
     24 C         143.9939  140.5154  162.8681 C.2     1  UNL1        0.2488
     25 O         144.3274  141.2015  164.1596 O.2     1  UNL1       -0.2728
@<TRIPOS>BOND
     1    21    22    1
     2    22    23    1
     3    22    24   am
     4    24    25    2
     5    24    20    1
     6    20     1    1
     7     1     2   ar
     8     2     3   ar
     9     3     4   ar
    10     4     5   ar
    11     5     6   ar
    12     6     7   ar
    13     7    10    1
    14    10    11   ar
    15    11    12   ar
    16    12    13   ar
    17    13    14    1
    18    13    15   ar
    19    15    17    1
    20    17    18    1
    21    17    19    1
    22    15    16   ar
    23     7     8   ar
    24     8     9   ar
    25     9     1   ar
    26     9     4   ar
    27    16    10   ar
