@<TRIPOS>MOLECULE
*****
 31 34 0 0 0
SMALL
GASTEIGER

@<TRIPOS>ATOM
      1 N         141.9532  141.1679  166.0987 N.pl3   1  UNL1       -0.2861
      2 C         142.5675  142.3973  165.4975 C.ar    1  UNL1        0.0576
      3 C         143.9806  142.7709  165.8342 C.ar    1  UNL1        0.0153
      4 C         144.5949  144.0002  165.2330 C.ar    1  UNL1        0.0013
      5 C         143.7959  144.8560  164.2952 C.ar    1  UNL1        0.0006
      6 C         142.3828  144.4823  163.9586 C.ar    1  UNL1        0.0077
      7 C         141.7686  143.2530  164.5597 C.ar    1  UNL1        0.0431
      8 S         140.3553  142.8794  164.2231 S.3     1  UNL1       -0.0844
      9 C         139.7411  141.6500  164.8242 C.ar    1  UNL1        0.0431
     10 C         138.3279  141.2764  164.4876 C.ar    1  UNL1        0.0077
     11 C         137.7137  140.0470  165.0888 C.ar    1  UNL1        0.0044
     12 C         138.5126  139.1913  166.0266 C.ar    1  UNL1        0.0727
     13 C         139.9257  139.5649  166.3632 C.ar    1  UNL1        0.0192
     14 C         140.5400  140.7943  165.7621 C.ar    1  UNL1        0.0576
     15 C         137.8983  137.9620  166.6277 C.3     1  UNL1        0.4186
     16 F         137.2841  136.7326  167.2290 F       1  UNL1       -0.1659
     17 F         137.3973  138.7772  167.7829 F       1  UNL1       -0.1659
     18 F         138.3994  137.1468  165.4726 F       1  UNL1       -0.1659
     19 C         142.7521  140.3122  167.0365 C.3     1  UNL1        0.0970
     20 C         143.3932  139.0508  166.5389 C.3     1  UNL1        0.0391
     21 C         143.7204  138.8996  165.0829 C.3     1  UNL1        0.0739
     22 N         140.4156  138.3374  162.0808 N.3     1  UNL1       -0.2682
     23 C         141.3510  139.5035  161.9570 C.3     1  UNL1        0.0897
     24 C         142.4526  139.6909  162.9576 C.3     1  UNL1        0.0897
     25 N         142.6188  138.7122  164.0821 N.3     1  UNL1       -0.2703
     26 C         141.6833  137.5462  164.2060 C.3     1  UNL1        0.0897
     27 C         140.5818  137.3588  163.2054 C.3     1  UNL1        0.0897
     28 C         139.3140  138.1501  161.0801 C.3     1  UNL1        0.1043
     29 O         137.1816  139.5782  161.4842 O.3     1  UNL1       -0.3805
     30 C         137.8816  138.2519  161.5136 C.3     1  UNL1        0.1544
     31 H         136.2688  139.4689  161.7934 H       1  UNL1        0.2105
@<TRIPOS>BOND
     1    29    30    1
     2    30    28    1
     3    28    22    1
     4    22    23    1
     5    23    24    1
     6    24    25    1
     7    25    21    1
     8    21    20    1
     9    20    19    1
    10    19     1    1
    11     1     2    1
    12     2     3   ar
    13     3     4   ar
    14     4     5   ar
    15     5     6   ar
    16     6     7   ar
    17     7     8    1
    18     8     9    1
    19     9    10   ar
    20    10    11   ar
    21    11    12   ar
    22    12    15    1
    23    15    16    1
    24    15    17    1
    25    15    18    1
    26    12    13   ar
    27    13    14   ar
    28    25    26    1
    29    26    27    1
    30    27    22    1
    31    14     1    1
    32     7     2   ar
    33    14     9   ar
    34    29    31    1
@<TRIPOS>MOLECULE
*****
 31 34 0 0 0
SMALL
GASTEIGER

@<TRIPOS>ATOM
      1 N         138.6818  141.7366  163.4905 N.pl3   1  UNL1       -0.2861
      2 C         139.3523  143.0403  163.1726 C.ar    1  UNL1        0.0576
      3 C         139.1428  143.6845  161.8343 C.ar    1  UNL1        0.0153
      4 C         139.8133  144.9881  161.5164 C.ar    1  UNL1        0.0013
      5 C         140.6932  145.6474  162.5367 C.ar    1  UNL1        0.0006
      6 C         140.9027  145.0031  163.8750 C.ar    1  UNL1        0.0077
      7 C         140.2322  143.6995  164.1929 C.ar    1  UNL1        0.0431
      8 S         140.4416  143.0552  165.5312 S.3     1  UNL1       -0.0844
      9 C         139.7712  141.7516  165.8491 C.ar    1  UNL1        0.0431
     10 C         139.9806  141.1073  167.1874 C.ar    1  UNL1        0.0077
     11 C         139.3101  139.8037  167.5054 C.ar    1  UNL1        0.0044
     12 C         138.4302  139.1444  166.4850 C.ar    1  UNL1        0.0727
     13 C         138.2207  139.7887  165.1468 C.ar    1  UNL1        0.0192
     14 C         138.8912  141.0923  164.8288 C.ar    1  UNL1        0.0576
     15 C         137.7597  137.8408  166.8030 C.3     1  UNL1        0.4186
     16 F         137.0892  136.5372  167.1209 F       1  UNL1       -0.1659
     17 F         137.0257  138.4947  167.9359 F       1  UNL1       -0.1659
     18 F         138.4937  137.1870  165.6700 F       1  UNL1       -0.1659
     19 C         137.8019  141.0773  162.4702 C.3     1  UNL1        0.0970
     20 C         138.4123  140.2746  161.3599 C.3     1  UNL1        0.0391
     21 C         139.2701  139.0858  161.6777 C.3     1  UNL1        0.0739
     22 N         143.4483  139.6795  163.2396 N.3     1  UNL1       -0.2682
     23 C         142.5849  138.5897  163.8026 C.3     1  UNL1        0.0897
     24 C         141.1922  138.3918  163.2820 C.3     1  UNL1        0.0897
     25 N         140.6629  139.2837  162.1984 N.3     1  UNL1       -0.2703
     26 C         141.5263  140.3735  161.6354 C.3     1  UNL1        0.0897
     27 C         142.9190  140.5714  162.1560 C.3     1  UNL1        0.0897
     28 C         144.8411  139.8773  163.7604 C.3     1  UNL1        0.1043
     29 O         146.4535  141.8134  163.1266 O.3     1  UNL1       -0.3805
     30 C         145.3633  141.2633  163.9977 C.3     1  UNL1        0.1544
     31 H         146.6723  142.7141  163.4125 H       1  UNL1        0.2105
@<TRIPOS>BOND
     1    29    30    1
     2    30    28    1
     3    28    22    1
     4    22    23    1
     5    23    24    1
     6    24    25    1
     7    25    21    1
     8    21    20    1
     9    20    19    1
    10    19     1    1
    11     1     2    1
    12     2     3   ar
    13     3     4   ar
    14     4     5   ar
    15     5     6   ar
    16     6     7   ar
    17     7     8    1
    18     8     9    1
    19     9    10   ar
    20    10    11   ar
    21    11    12   ar
    22    12    15    1
    23    15    16    1
    24    15    17    1
    25    15    18    1
    26    12    13   ar
    27    13    14   ar
    28    25    26    1
    29    26    27    1
    30    27    22    1
    31    14     1    1
    32     7     2   ar
    33    14     9   ar
    34    29    31    1
@<TRIPOS>MOLECULE
*****
 31 34 0 0 0
SMALL
GASTEIGER

@<TRIPOS>ATOM
      1 N         141.1370  142.0652  164.8697 N.pl3   1  UNL1       -0.2861
      2 C         142.2336  142.6021  163.9983 C.ar    1  UNL1        0.0576
      3 C         142.6518  144.0376  164.1178 C.ar    1  UNL1        0.0153
      4 C         143.7484  144.5743  163.2464 C.ar    1  UNL1        0.0013
      5 C         144.4268  143.6756  162.2555 C.ar    1  UNL1        0.0006
      6 C         144.0086  142.2400  162.1360 C.ar    1  UNL1        0.0077
      7 C         142.9121  141.7033  163.0073 C.ar    1  UNL1        0.0431
      8 S         142.4938  140.2677  162.8878 S.3     1  UNL1       -0.0844
      9 C         141.3972  139.7309  163.7592 C.ar    1  UNL1        0.0431
     10 C         140.9790  138.2953  163.6397 C.ar    1  UNL1        0.0077
     11 C         139.8824  137.7586  164.5110 C.ar    1  UNL1        0.0044
     12 C         139.2040  138.6574  165.5020 C.ar    1  UNL1        0.0727
     13 C         139.6222  140.0929  165.6215 C.ar    1  UNL1        0.0192
     14 C         140.7188  140.6297  164.7501 C.ar    1  UNL1        0.0576
     15 C         138.1074  138.1206  166.3734 C.3     1  UNL1        0.4186
     16 F         137.0108  137.5838  167.2448 F       1  UNL1       -0.1659
     17 F         138.2394  136.7800  165.7137 F       1  UNL1       -0.1659
     18 F         137.9754  139.4612  167.0331 F       1  UNL1       -0.1659
     19 C         140.4586  142.9640  165.8606 C.3     1  UNL1        0.0970
     20 C         139.3411  143.8610  165.4173 C.3     1  UNL1        0.0391
     21 C         138.5474  143.5203  164.1909 C.3     1  UNL1        0.0739
     22 N         139.9286  144.9409  160.1506 N.3     1  UNL1       -0.2682
     23 C         139.5928  143.4944  160.3625 C.3     1  UNL1        0.0897
     24 C         139.1324  143.0209  161.7093 C.3     1  UNL1        0.0897
     25 N         139.0078  143.9938  162.8441 N.3     1  UNL1       -0.2703
     26 C         139.3436  145.4403  162.6322 C.3     1  UNL1        0.0897
     27 C         139.8040  145.9138  161.2854 C.3     1  UNL1        0.0897
     28 C         140.3889  145.4145  158.8038 C.3     1  UNL1        0.1043
     29 O         142.5799  146.3616  157.7779 O.3     1  UNL1       -0.3805
     30 C         141.8180  145.2236  158.3899 C.3     1  UNL1        0.1544
     31 H         143.4820  146.0719  157.5700 H       1  UNL1        0.2105
@<TRIPOS>BOND
     1    29    30    1
     2    30    28    1
     3    28    22    1
     4    22    23    1
     5    23    24    1
     6    24    25    1
     7    25    21    1
     8    21    20    1
     9    20    19    1
    10    19     1    1
    11     1     2    1
    12     2     3   ar
    13     3     4   ar
    14     4     5   ar
    15     5     6   ar
    16     6     7   ar
    17     7     8    1
    18     8     9    1
    19     9    10   ar
    20    10    11   ar
    21    11    12   ar
    22    12    15    1
    23    15    16    1
    24    15    17    1
    25    15    18    1
    26    12    13   ar
    27    13    14   ar
    28    25    26    1
    29    26    27    1
    30    27    22    1
    31    14     1    1
    32     7     2   ar
    33    14     9   ar
    34    29    31    1
@<TRIPOS>MOLECULE
*****
 31 34 0 0 0
SMALL
GASTEIGER

@<TRIPOS>ATOM
      1 N         141.8765  140.9867  165.8054 N.pl3   1  UNL1       -0.2861
      2 C         143.1303  141.2482  165.0245 C.ar    1  UNL1        0.0576
      3 C         143.9516  142.4700  165.3116 C.ar    1  UNL1        0.0153
      4 C         145.2053  142.7315  164.5307 C.ar    1  UNL1        0.0013
      5 C         145.6377  141.7711  163.4626 C.ar    1  UNL1        0.0006
      6 C         144.8164  140.5492  163.1755 C.ar    1  UNL1        0.0077
      7 C         143.5627  140.2878  163.9564 C.ar    1  UNL1        0.0431
      8 S         142.7413  139.0659  163.6694 S.3     1  UNL1       -0.0844
      9 C         141.4876  138.8044  164.4503 C.ar    1  UNL1        0.0431
     10 C         140.6662  137.5825  164.1632 C.ar    1  UNL1        0.0077
     11 C         139.4125  137.3210  164.9441 C.ar    1  UNL1        0.0044
     12 C         138.9802  138.2815  166.0121 C.ar    1  UNL1        0.0727
     13 C         139.8015  139.5033  166.2992 C.ar    1  UNL1        0.0192
     14 C         141.0552  139.7648  165.5183 C.ar    1  UNL1        0.0576
     15 C         137.7265  138.0200  166.7930 C.3     1  UNL1        0.4186
     16 F         136.4727  137.7585  167.5740 F       1  UNL1       -0.1659
     17 F         137.7382  136.5921  166.3337 F       1  UNL1       -0.1659
     18 F         137.7148  139.4479  167.2523 F       1  UNL1       -0.1659
     19 C         141.4442  141.9471  166.8734 C.3     1  UNL1        0.0970
     20 C         140.3422  142.9271  166.5994 C.3     1  UNL1        0.0391
     21 C         140.1516  143.4737  165.2156 C.3     1  UNL1        0.0739
     22 N         138.2428  140.9276  162.0339 N.3     1  UNL1       -0.2682
     23 C         137.4845  141.2578  163.2852 C.3     1  UNL1        0.0897
     24 C         138.1207  142.1065  164.3458 C.3     1  UNL1        0.0897
     25 N         139.5152  142.6250  164.1550 N.3     1  UNL1       -0.2703
     26 C         140.2735  142.2947  162.9036 C.3     1  UNL1        0.0897
     27 C         139.6373  141.4460  161.8431 C.3     1  UNL1        0.0897
     28 C         137.6064  140.0788  160.9733 C.3     1  UNL1        0.1043
     29 O         138.6964  137.7470  161.3258 O.3     1  UNL1       -0.3805
     30 C         137.4708  138.5991  161.1780 C.3     1  UNL1        0.1544
     31 H         138.4337  136.8215  161.4498 H       1  UNL1        0.2105
@<TRIPOS>BOND
     1    29    30    1
     2    30    28    1
     3    28    22    1
     4    22    23    1
     5    23    24    1
     6    24    25    1
     7    25    21    1
     8    21    20    1
     9    20    19    1
    10    19     1    1
    11     1     2    1
    12     2     3   ar
    13     3     4   ar
    14     4     5   ar
    15     5     6   ar
    16     6     7   ar
    17     7     8    1
    18     8     9    1
    19     9    10   ar
    20    10    11   ar
    21    11    12   ar
    22    12    15    1
    23    15    16    1
    24    15    17    1
    25    15    18    1
    26    12    13   ar
    27    13    14   ar
    28    25    26    1
    29    26    27    1
    30    27    22    1
    31    14     1    1
    32     7     2   ar
    33    14     9   ar
    34    29    31    1
@<TRIPOS>MOLECULE
*****
 31 34 0 0 0
SMALL
GASTEIGER

@<TRIPOS>ATOM
      1 N         140.8656  142.2913  164.9615 N.pl3   1  UNL1       -0.2861
      2 C         142.0080  142.8808  164.1885 C.ar    1  UNL1        0.0576
      3 C         142.2355  144.3634  164.2000 C.ar    1  UNL1        0.0153
      4 C         143.3778  144.9528  163.4271 C.ar    1  UNL1        0.0013
      5 C         144.2927  144.0597  162.6426 C.ar    1  UNL1        0.0006
      6 C         144.0652  142.5772  162.6310 C.ar    1  UNL1        0.0077
      7 C         142.9228  141.9877  163.4040 C.ar    1  UNL1        0.0431
      8 S         142.6953  140.5051  163.3925 S.3     1  UNL1       -0.0844
      9 C         141.5529  139.9156  164.1654 C.ar    1  UNL1        0.0431
     10 C         141.3253  138.4330  164.1539 C.ar    1  UNL1        0.0077
     11 C         140.1830  137.8435  164.9269 C.ar    1  UNL1        0.0044
     12 C         139.2681  138.7366  165.7114 C.ar    1  UNL1        0.0727
     13 C         139.4956  140.2192  165.7229 C.ar    1  UNL1        0.0192
     14 C         140.6381  140.8087  164.9499 C.ar    1  UNL1        0.0576
     15 C         138.1258  138.1471  166.4843 C.3     1  UNL1        0.4186
     16 F         136.9834  137.5576  167.2573 F       1  UNL1       -0.1659
     17 F         138.2382  136.8823  165.6859 F       1  UNL1       -0.1659
     18 F         138.0133  139.4120  167.2827 F       1  UNL1       -0.1659
     19 C         139.9507  143.1844  165.7460 C.3     1  UNL1        0.0970
     20 C         138.9461  144.0406  165.0336 C.3     1  UNL1        0.0391
     21 C         137.7377  143.4131  164.4043 C.3     1  UNL1        0.0739
     22 N         138.1375  141.1377  160.5426 N.3     1  UNL1       -0.2682
     23 C         138.5773  142.5698  160.6183 C.3     1  UNL1        0.0897
     24 C         138.4440  143.3282  161.9055 C.3     1  UNL1        0.0897
     25 N         137.8710  142.6546  163.1170 N.3     1  UNL1       -0.2703
     26 C         137.4312  141.2225  163.0413 C.3     1  UNL1        0.0897
     27 C         137.5645  140.4641  161.7542 C.3     1  UNL1        0.0897
     28 C         138.2708  140.3792  159.2554 C.3     1  UNL1        0.1043
     29 O         136.8528  140.4255  157.0790 O.3     1  UNL1       -0.3805
     30 C         137.9051  141.0352  157.9570 C.3     1  UNL1        0.1544
     31 H         136.7389  140.9705  156.2847 H       1  UNL1        0.2105
@<TRIPOS>BOND
     1    29    30    1
     2    30    28    1
     3    28    22    1
     4    22    23    1
     5    23    24    1
     6    24    25    1
     7    25    21    1
     8    21    20    1
     9    20    19    1
    10    19     1    1
    11     1     2    1
    12     2     3   ar
    13     3     4   ar
    14     4     5   ar
    15     5     6   ar
    16     6     7   ar
    17     7     8    1
    18     8     9    1
    19     9    10   ar
    20    10    11   ar
    21    11    12   ar
    22    12    15    1
    23    15    16    1
    24    15    17    1
    25    15    18    1
    26    12    13   ar
    27    13    14   ar
    28    25    26    1
    29    26    27    1
    30    27    22    1
    31    14     1    1
    32     7     2   ar
    33    14     9   ar
    34    29    31    1
@<TRIPOS>MOLECULE
*****
 31 34 0 0 0
SMALL
GASTEIGER

@<TRIPOS>ATOM
      1 N         138.9119  140.0535  164.6639 N.pl3   1  UNL1       -0.2861
      2 C         138.8916  140.7082  163.3145 C.ar    1  UNL1        0.0576
      3 C         138.3650  139.9601  162.1258 C.ar    1  UNL1        0.0153
      4 C         138.3447  140.6148  160.7764 C.ar    1  UNL1        0.0013
      5 C         138.8508  142.0176  160.6157 C.ar    1  UNL1        0.0006
      6 C         139.3774  142.7658  161.8044 C.ar    1  UNL1        0.0077
      7 C         139.3977  142.1110  163.1538 C.ar    1  UNL1        0.0431
      8 S         139.9243  142.8591  164.3426 S.3     1  UNL1       -0.0844
      9 C         139.9447  142.2044  165.6919 C.ar    1  UNL1        0.0431
     10 C         140.4712  142.9525  166.8807 C.ar    1  UNL1        0.0077
     11 C         140.4916  142.2978  168.2301 C.ar    1  UNL1        0.0044
     12 C         139.9854  140.8950  168.3908 C.ar    1  UNL1        0.0727
     13 C         139.4589  140.1469  167.2021 C.ar    1  UNL1        0.0192
     14 C         139.4385  140.8016  165.8526 C.ar    1  UNL1        0.0576
     15 C         140.0058  140.2403  169.7402 C.3     1  UNL1        0.4186
     16 F         140.0262  139.5855  171.0896 F       1  UNL1       -0.1659
     17 F         141.2317  139.4701  169.3480 F       1  UNL1       -0.1659
     18 F         138.7798  141.0105  170.1324 F       1  UNL1       -0.1659
     19 C         138.4057  138.6506  164.8246 C.3     1  UNL1        0.0970
     20 C         139.3717  137.5035  164.8539 C.3     1  UNL1        0.0391
     21 C         140.4150  137.3740  163.7840 C.3     1  UNL1        0.0739
     22 N         144.1891  139.8139  164.0144 N.3     1  UNL1       -0.2682
     23 C         143.7151  139.0504  165.2154 C.3     1  UNL1        0.0897
     24 C         142.4571  138.2371  165.1386 C.3     1  UNL1        0.0897
     25 N         141.6731  138.1873  163.8608 N.3     1  UNL1       -0.2703
     26 C         142.1471  138.9508  162.6598 C.3     1  UNL1        0.0897
     27 C         143.4051  139.7641  162.7366 C.3     1  UNL1        0.0897
     28 C         145.4472  140.6272  164.0912 C.3     1  UNL1        0.1043
     29 O         145.8639  142.2079  162.0719 O.3     1  UNL1       -0.3805
     30 C         145.4836  142.0092  163.5092 C.3     1  UNL1        0.1544
     31 H         145.8376  143.1537  161.8583 H       1  UNL1        0.2105
@<TRIPOS>BOND
     1    29    30    1
     2    30    28    1
     3    28    22    1
     4    22    23    1
     5    23    24    1
     6    24    25    1
     7    25    21    1
     8    21    20    1
     9    20    19    1
    10    19     1    1
    11     1     2    1
    12     2     3   ar
    13     3     4   ar
    14     4     5   ar
    15     5     6   ar
    16     6     7   ar
    17     7     8    1
    18     8     9    1
    19     9    10   ar
    20    10    11   ar
    21    11    12   ar
    22    12    15    1
    23    15    16    1
    24    15    17    1
    25    15    18    1
    26    12    13   ar
    27    13    14   ar
    28    25    26    1
    29    26    27    1
    30    27    22    1
    31    14     1    1
    32     7     2   ar
    33    14     9   ar
    34    29    31    1
@<TRIPOS>MOLECULE
*****
 31 34 0 0 0
SMALL
GASTEIGER

@<TRIPOS>ATOM
      1 N         141.3082  138.7994  164.6838 N.pl3   1  UNL1       -0.2861
      2 C         142.2845  138.8867  163.5483 C.ar    1  UNL1        0.0576
      3 C         142.2343  137.8806  162.4370 C.ar    1  UNL1        0.0153
      4 C         143.2106  137.9679  161.3016 C.ar    1  UNL1        0.0013
      5 C         144.2370  139.0615  161.2774 C.ar    1  UNL1        0.0006
      6 C         144.2871  140.0677  162.3887 C.ar    1  UNL1        0.0077
      7 C         143.3109  139.9803  163.5241 C.ar    1  UNL1        0.0431
      8 S         143.3610  140.9866  164.6355 S.3     1  UNL1       -0.0844
      9 C         142.3848  140.8992  165.7710 C.ar    1  UNL1        0.0431
     10 C         142.4349  141.9054  166.8823 C.ar    1  UNL1        0.0077
     11 C         141.4587  141.8180  168.0178 C.ar    1  UNL1        0.0044
     12 C         140.4323  140.7244  168.0419 C.ar    1  UNL1        0.0727
     13 C         140.3821  139.7182  166.9307 C.ar    1  UNL1        0.0192
     14 C         141.3584  139.8056  165.7951 C.ar    1  UNL1        0.0576
     15 C         139.4561  140.6370  169.1774 C.3     1  UNL1        0.4186
     16 F         138.4798  140.5497  170.3129 F       1  UNL1       -0.1659
     17 F         140.2572  141.6472  169.9440 F       1  UNL1       -0.1659
     18 F         138.6549  139.6269  168.4108 F       1  UNL1       -0.1659
     19 C         140.2818  137.7058  164.7080 C.3     1  UNL1        0.0970
     20 C         138.8666  137.9964  164.3048 C.3     1  UNL1        0.0391
     21 C         138.5863  138.7264  163.0247 C.3     1  UNL1        0.0739
     22 N         138.5885  143.2258  162.9537 N.3     1  UNL1       -0.2682
     23 C         139.0598  142.4566  161.7553 C.3     1  UNL1        0.0897
     24 C         139.0591  140.9568  161.7789 C.3     1  UNL1        0.0897
     25 N         138.5871  140.2263  163.0010 N.3     1  UNL1       -0.2703
     26 C         138.1158  140.9955  164.1994 C.3     1  UNL1        0.0897
     27 C         138.1165  142.4953  164.1757 C.3     1  UNL1        0.0897
     28 C         138.5892  144.7257  162.9300 C.3     1  UNL1        0.1043
     29 O         140.6905  146.2457  162.7756 O.3     1  UNL1       -0.3805
     30 C         139.6018  145.4622  162.1041 C.3     1  UNL1        0.1544
     31 H         141.2549  146.6573  162.1026 H       1  UNL1        0.2105
@<TRIPOS>BOND
     1    29    30    1
     2    30    28    1
     3    28    22    1
     4    22    23    1
     5    23    24    1
     6    24    25    1
     7    25    21    1
     8    21    20    1
     9    20    19    1
    10    19     1    1
    11     1     2    1
    12     2     3   ar
    13     3     4   ar
    14     4     5   ar
    15     5     6   ar
    16     6     7   ar
    17     7     8    1
    18     8     9    1
    19     9    10   ar
    20    10    11   ar
    21    11    12   ar
    22    12    15    1
    23    15    16    1
    24    15    17    1
    25    15    18    1
    26    12    13   ar
    27    13    14   ar
    28    25    26    1
    29    26    27    1
    30    27    22    1
    31    14     1    1
    32     7     2   ar
    33    14     9   ar
    34    29    31    1
@<TRIPOS>MOLECULE
*****
 31 34 0 0 0
SMALL
GASTEIGER

@<TRIPOS>ATOM
      1 N         138.8056  141.5890  163.8414 N.pl3   1  UNL1       -0.2861
      2 C         138.9479  140.9522  165.1921 C.ar    1  UNL1        0.0576
      3 C         138.1796  139.7059  165.5184 C.ar    1  UNL1        0.0153
      4 C         138.3219  139.0692  166.8690 C.ar    1  UNL1        0.0013
      5 C         139.2326  139.6787  167.8933 C.ar    1  UNL1        0.0006
      6 C         140.0009  140.9249  167.5670 C.ar    1  UNL1        0.0077
      7 C         139.8586  141.5617  166.2164 C.ar    1  UNL1        0.0431
      8 S         140.6269  142.8080  165.8900 S.3     1  UNL1       -0.0844
      9 C         140.4846  143.4447  164.5394 C.ar    1  UNL1        0.0431
     10 C         141.2530  144.6910  164.2130 C.ar    1  UNL1        0.0077
     11 C         141.1106  145.3277  162.8624 C.ar    1  UNL1        0.0044
     12 C         140.2000  144.7182  161.8381 C.ar    1  UNL1        0.0727
     13 C         139.4317  143.4720  162.1644 C.ar    1  UNL1        0.0192
     14 C         139.5740  142.8352  163.5151 C.ar    1  UNL1        0.0576
     15 C         140.0577  145.3550  160.4874 C.3     1  UNL1        0.4186
     16 F         139.9154  145.9917  159.1367 F       1  UNL1       -0.1659
     17 F         140.6221  144.1218  159.8466 F       1  UNL1       -0.1659
     18 F         139.4932  146.5881  161.1282 F       1  UNL1       -0.1659
     19 C         137.8950  140.9795  162.8170 C.3     1  UNL1        0.0970
     20 C         138.2549  139.6715  162.1771 C.3     1  UNL1        0.0391
     21 C         139.5065  139.5564  161.3583 C.3     1  UNL1        0.0739
     22 N         143.5313  139.9209  163.3377 N.3     1  UNL1       -0.2682
     23 C         143.1511  140.8612  162.2325 C.3     1  UNL1        0.0897
     24 C         141.8095  140.7397  161.5728 C.3     1  UNL1        0.0897
     25 N         140.8481  139.6779  162.0181 N.3     1  UNL1       -0.2703
     26 C         141.2284  138.7377  163.1233 C.3     1  UNL1        0.0897
     27 C         142.5700  138.8592  163.7830 C.3     1  UNL1        0.0897
     28 C         144.8730  140.0425  163.9974 C.3     1  UNL1        0.1043
     29 O         146.4917  141.8041  162.9844 O.3     1  UNL1       -0.3805
     30 C         145.5530  141.3773  164.0738 C.3     1  UNL1        0.1544
     31 H         146.8424  142.6855  163.1868 H       1  UNL1        0.2105
@<TRIPOS>BOND
     1    29    30    1
     2    30    28    1
     3    28    22    1
     4    22    23    1
     5    23    24    1
     6    24    25    1
     7    25    21    1
     8    21    20    1
     9    20    19    1
    10    19     1    1
    11     1     2    1
    12     2     3   ar
    13     3     4   ar
    14     4     5   ar
    15     5     6   ar
    16     6     7   ar
    17     7     8    1
    18     8     9    1
    19     9    10   ar
    20    10    11   ar
    21    11    12   ar
    22    12    15    1
    23    15    16    1
    24    15    17    1
    25    15    18    1
    26    12    13   ar
    27    13    14   ar
    28    25    26    1
    29    26    27    1
    30    27    22    1
    31    14     1    1
    32     7     2   ar
    33    14     9   ar
    34    29    31    1
@<TRIPOS>MOLECULE
*****
 31 34 0 0 0
SMALL
GASTEIGER

@<TRIPOS>ATOM
      1 N         139.3342  140.6608  165.7490 N.pl3   1  UNL1       -0.2861
      2 C         138.9429  141.7343  164.7770 C.ar    1  UNL1        0.0576
      3 C         137.7817  141.5211  163.8517 C.ar    1  UNL1        0.0153
      4 C         137.3904  142.5945  162.8797 C.ar    1  UNL1        0.0013
      5 C         138.1603  143.8810  162.8331 C.ar    1  UNL1        0.0006
      6 C         139.3215  144.0941  163.7584 C.ar    1  UNL1        0.0077
      7 C         139.7127  143.0208  164.7304 C.ar    1  UNL1        0.0431
      8 S         140.8739  143.2339  165.6558 S.3     1  UNL1       -0.0844
      9 C         141.2652  142.1605  166.6277 C.ar    1  UNL1        0.0431
     10 C         142.4264  142.3736  167.5531 C.ar    1  UNL1        0.0077
     11 C         142.8177  141.3002  168.5251 C.ar    1  UNL1        0.0044
     12 C         142.0478  140.0137  168.5717 C.ar    1  UNL1        0.0727
     13 C         140.8867  139.8006  167.6464 C.ar    1  UNL1        0.0192
     14 C         140.4953  140.8740  166.6743 C.ar    1  UNL1        0.0576
     15 C         142.4391  138.9403  169.5436 C.3     1  UNL1        0.4186
     16 F         142.8303  137.8669  170.5157 F       1  UNL1       -0.1659
     17 F         141.6515  139.6274  170.6195 F       1  UNL1       -0.1659
     18 F         143.2267  138.2532  168.4678 F       1  UNL1       -0.1659
     19 C         138.5643  139.3743  165.7957 C.3     1  UNL1        0.0970
     20 C         138.8323  138.3027  164.7809 C.3     1  UNL1        0.0391
     21 C         140.1798  137.6463  164.7214 C.3     1  UNL1        0.0739
     22 N         143.7602  139.9818  163.3157 N.3     1  UNL1       -0.2682
     23 C         142.4550  140.0982  162.5857 C.3     1  UNL1        0.0897
     24 C         141.2615  139.3197  163.0543 C.3     1  UNL1        0.0897
     25 N         141.3733  138.4248  164.2528 N.3     1  UNL1       -0.2703
     26 C         142.6785  138.3084  164.9828 C.3     1  UNL1        0.0897
     27 C         143.8719  139.0869  164.5143 C.3     1  UNL1        0.0897
     28 C         144.9537  140.7603  162.8471 C.3     1  UNL1        0.1043
     29 O         144.6022  142.4893  164.7541 O.3     1  UNL1       -0.3805
     30 C         145.2916  142.0734  163.4886 C.3     1  UNL1        0.1544
     31 H         144.9342  143.3569  165.0331 H       1  UNL1        0.2105
@<TRIPOS>BOND
     1    29    30    1
     2    30    28    1
     3    28    22    1
     4    22    23    1
     5    23    24    1
     6    24    25    1
     7    25    21    1
     8    21    20    1
     9    20    19    1
    10    19     1    1
    11     1     2    1
    12     2     3   ar
    13     3     4   ar
    14     4     5   ar
    15     5     6   ar
    16     6     7   ar
    17     7     8    1
    18     8     9    1
    19     9    10   ar
    20    10    11   ar
    21    11    12   ar
    22    12    15    1
    23    15    16    1
    24    15    17    1
    25    15    18    1
    26    12    13   ar
    27    13    14   ar
    28    25    26    1
    29    26    27    1
    30    27    22    1
    31    14     1    1
    32     7     2   ar
    33    14     9   ar
    34    29    31    1
