@<TRIPOS>MOLECULE
*****
 29 32 0 0 0
SMALL
GASTEIGER

@<TRIPOS>ATOM
      1 N         141.6337  141.6099  167.5200 N.ar    1  UNL1       -0.3153
      2 C         142.2589  142.5255  168.5303 C.ar    1  UNL1        0.0779
      3 C         141.4814  142.4062  169.8075 C.ar    1  UNL1        0.0395
      4 C         140.3757  141.4170  169.5865 C.ar    1  UNL1        0.1060
      5 N         139.2954  140.9008  170.4900 N.ar    1  UNL1       -0.2123
      6 C         138.3091  139.8923  169.9797 C.ar    1  UNL1        0.2163
      7 N         137.2287  139.3761  170.8831 N.pl3   1  UNL1       -0.3274
      8 N         138.4032  139.4002  168.5658 N.ar    1  UNL1       -0.1778
      9 C         139.4836  139.9165  167.6623 C.ar    1  UNL1        0.2455
     10 C         140.4699  140.9248  168.1727 C.ar    1  UNL1        0.1322
     11 H         137.1670  139.6992  171.8111 H       1  UNL1        0.1452
     12 H         136.5814  138.7143  170.5482 H       1  UNL1        0.1452
     13 C         142.0919  141.4139  166.1052 C.3     1  UNL1        0.1552
     14 C         143.5708  142.8279  164.5040 C.ar    1  UNL1        0.1541
     15 C         143.7413  144.0126  163.5999 C.ar    1  UNL1        0.0398
     16 C         142.6036  144.9680  163.3928 C.ar    1  UNL1        0.0238
     17 C         141.2953  144.7387  164.0899 C.ar    1  UNL1        0.0987
     18 N         141.1248  143.5539  164.9940 N.ar    1  UNL1       -0.2432
     19 C         142.2625  142.5985  165.2011 C.ar    1  UNL1        0.1156
     20 C         145.7285  141.6752  163.6291 C.3     1  UNL1        0.2525
     21 O         144.7085  141.8725  164.7110 O.3     1  UNL1       -0.4702
     22 O         139.5778  139.4243  166.2485 O.3     1  UNL1       -0.4489
     23 C         138.3532  139.3914  165.3827 C.3     1  UNL1        0.2913
     24 C         138.1126  140.4829  164.3823 C.ar    1  UNL1        0.2504
     25 N         137.8573  140.2945  162.9162 N.ar    1  UNL1       -0.2077
     26 C         137.6719  141.6495  162.3001 C.ar    1  UNL1        0.1347
     27 C         137.8126  142.6753  163.3854 C.ar    1  UNL1        0.1440
     28 C         137.7006  144.1613  163.2139 C.3     1  UNL1        0.0742
     29 O         138.0849  141.9544  164.6723 O.2     1  UNL1       -0.4392
@<TRIPOS>BOND
     1    20    21    1
     2    21    14    1
     3    14    15   ar
     4    15    16   ar
     5    16    17   ar
     6    17    18   ar
     7    18    19   ar
     8    19    13    1
     9    13     1    1
    10     1     2   ar
    11     2     3   ar
    12     3     4   ar
    13     4     5   ar
    14     5     6   ar
    15     6     7    1
    16     6     8   ar
    17     8     9   ar
    18     9    22    1
    19    22    23    1
    20    23    24    1
    21    24    25   ar
    22    25    26   ar
    23    26    27   ar
    24    27    28    1
    25    27    29   ar
    26     9    10   ar
    27    19    14   ar
    28    10     1   ar
    29    10     4   ar
    30    29    24   ar
    31     7    11    1
    32     7    12    1
@<TRIPOS>MOLECULE
*****
 29 32 0 0 0
SMALL
GASTEIGER

@<TRIPOS>ATOM
      1 N         138.5818  142.8145  163.6927 N.ar    1  UNL1       -0.3153
      2 C         137.9631  143.8273  164.6100 C.ar    1  UNL1        0.0779
      3 C         138.9625  144.9237  164.8314 C.ar    1  UNL1        0.0395
      4 C         140.1988  144.5886  164.0509 C.ar    1  UNL1        0.1060
      5 N         141.5084  145.3021  163.8901 N.ar    1  UNL1       -0.2123
      6 C         142.5828  144.7119  163.0255 C.ar    1  UNL1        0.2163
      7 N         143.8924  145.4253  162.8647 N.pl3   1  UNL1       -0.3274
      8 N         142.3475  143.4083  162.3217 N.ar    1  UNL1       -0.1778
      9 C         141.0378  142.6949  162.4825 C.ar    1  UNL1        0.2455
     10 C         139.9635  143.2850  163.3471 C.ar    1  UNL1        0.1322
     11 H         144.0468  146.2809  163.3266 H       1  UNL1        0.1452
     12 H         144.5975  145.0380  162.2972 H       1  UNL1        0.1452
     13 C         137.9327  141.5527  163.2063 C.3     1  UNL1        0.1552
     14 C         138.4721  139.0147  163.0729 C.ar    1  UNL1        0.1541
     15 C         138.7625  137.7108  163.7552 C.ar    1  UNL1        0.0398
     16 C         138.8039  137.6409  165.2530 C.ar    1  UNL1        0.0238
     17 C         138.5549  138.8749  166.0686 C.ar    1  UNL1        0.0987
     18 N         138.2645  140.1789  165.3863 N.ar    1  UNL1       -0.2432
     19 C         138.2231  140.2488  163.8885 C.ar    1  UNL1        0.1156
     20 C         139.1945  138.0865  160.7563 C.3     1  UNL1        0.2525
     21 O         138.4307  139.0846  161.5752 O.3     1  UNL1       -0.4702
     22 O         140.8025  141.3913  161.7788 O.3     1  UNL1       -0.4489
     23 C         141.7676  140.2570  161.9586 C.3     1  UNL1        0.2913
     24 C         141.9818  139.6631  163.3192 C.ar    1  UNL1        0.2504
     25 N         142.4275  138.2604  163.6088 N.ar    1  UNL1       -0.2077
     26 C         142.5091  138.0980  165.0977 C.ar    1  UNL1        0.1347
     27 C         142.1138  139.4003  165.7284 C.ar    1  UNL1        0.1440
     28 C         142.0548  139.6853  167.1999 C.3     1  UNL1        0.0742
     29 O         141.7880  140.3677  164.6293 O.2     1  UNL1       -0.4392
@<TRIPOS>BOND
     1    20    21    1
     2    21    14    1
     3    14    15   ar
     4    15    16   ar
     5    16    17   ar
     6    17    18   ar
     7    18    19   ar
     8    19    13    1
     9    13     1    1
    10     1     2   ar
    11     2     3   ar
    12     3     4   ar
    13     4     5   ar
    14     5     6   ar
    15     6     7    1
    16     6     8   ar
    17     8     9   ar
    18     9    22    1
    19    22    23    1
    20    23    24    1
    21    24    25   ar
    22    25    26   ar
    23    26    27   ar
    24    27    28    1
    25    27    29   ar
    26     9    10   ar
    27    19    14   ar
    28    10     1   ar
    29    10     4   ar
    30    29    24   ar
    31     7    11    1
    32     7    12    1
@<TRIPOS>MOLECULE
*****
 29 32 0 0 0
SMALL
GASTEIGER

@<TRIPOS>ATOM
      1 N         141.0125  142.5382  165.0170 N.ar    1  UNL1       -0.3153
      2 C         142.4355  142.9938  165.1493 C.ar    1  UNL1        0.0779
      3 C         142.6208  144.1958  164.2714 C.ar    1  UNL1        0.0395
      4 C         141.3123  144.4831  163.5966 C.ar    1  UNL1        0.1060
      5 N         140.8976  145.5453  162.6220 N.ar    1  UNL1       -0.2123
      6 C         139.4888  145.5829  162.1082 C.ar    1  UNL1        0.2163
      7 N         139.0740  146.6450  161.1336 N.pl3   1  UNL1       -0.3274
      8 N         138.4948  144.5584  162.5690 N.ar    1  UNL1       -0.1778
      9 C         138.9096  143.4962  163.5436 C.ar    1  UNL1        0.2455
     10 C         140.3183  143.4586  164.0574 C.ar    1  UNL1        0.1322
     11 H         139.7264  147.3174  160.8312 H       1  UNL1        0.1452
     12 H         138.1494  146.6697  160.7964 H       1  UNL1        0.1452
     13 C         140.3925  141.3676  165.7208 C.3     1  UNL1        0.1552
     14 C         139.5499  138.9472  165.2943 C.ar    1  UNL1        0.1541
     15 C         139.7975  137.5547  164.7947 C.ar    1  UNL1        0.0398
     16 C         141.1351  137.1900  164.2221 C.ar    1  UNL1        0.0238
     17 C         142.2251  138.2178  164.1490 C.ar    1  UNL1        0.0987
     18 N         141.9775  139.6104  164.6487 N.ar    1  UNL1       -0.2432
     19 C         140.6400  139.9751  165.2213 C.ar    1  UNL1        0.1156
     20 C         137.6376  138.5122  166.9983 C.3     1  UNL1        0.2525
     21 O         138.2123  139.3119  165.8669 O.3     1  UNL1       -0.4702
     22 O         137.9156  142.4717  164.0045 O.3     1  UNL1       -0.4489
     23 C         137.2995  141.5267  163.0158 C.3     1  UNL1        0.2913
     24 C         138.1446  140.4811  162.3506 C.ar    1  UNL1        0.2504
     25 N         137.7147  139.0847  162.0112 N.ar    1  UNL1       -0.2077
     26 C         138.8724  138.3888  161.3589 C.ar    1  UNL1        0.1347
     27 C         140.0179  139.3552  161.2952 C.ar    1  UNL1        0.1440
     28 C         141.3749  139.0773  160.7196 C.3     1  UNL1        0.0742
     29 O         139.5681  140.6483  161.9081 O.2     1  UNL1       -0.4392
@<TRIPOS>BOND
     1    20    21    1
     2    21    14    1
     3    14    15   ar
     4    15    16   ar
     5    16    17   ar
     6    17    18   ar
     7    18    19   ar
     8    19    13    1
     9    13     1    1
    10     1     2   ar
    11     2     3   ar
    12     3     4   ar
    13     4     5   ar
    14     5     6   ar
    15     6     7    1
    16     6     8   ar
    17     8     9   ar
    18     9    22    1
    19    22    23    1
    20    23    24    1
    21    24    25   ar
    22    25    26   ar
    23    26    27   ar
    24    27    28    1
    25    27    29   ar
    26     9    10   ar
    27    19    14   ar
    28    10     1   ar
    29    10     4   ar
    30    29    24   ar
    31     7    11    1
    32     7    12    1
@<TRIPOS>MOLECULE
*****
 29 32 0 0 0
SMALL
GASTEIGER

@<TRIPOS>ATOM
      1 N         140.9203  141.0749  165.8272 N.ar    1  UNL1       -0.3153
      2 C         141.5403  141.5316  167.1145 C.ar    1  UNL1        0.0779
      3 C         140.7716  140.9128  168.2443 C.ar    1  UNL1        0.0395
      4 C         139.6766  140.0737  167.6552 C.ar    1  UNL1        0.1060
      5 N         138.6077  139.2315  168.2860 N.ar    1  UNL1       -0.2123
      6 C         137.6307  138.4893  167.4230 C.ar    1  UNL1        0.2163
      7 N         136.5618  137.6470  168.0539 N.pl3   1  UNL1       -0.3274
      8 N         137.7226  138.5895  165.9292 N.ar    1  UNL1       -0.1778
      9 C         138.7916  139.4318  165.2984 C.ar    1  UNL1        0.2455
     10 C         139.7685  140.1739  166.1614 C.ar    1  UNL1        0.1322
     11 H         136.5015  137.5812  169.0343 H       1  UNL1        0.1452
     12 H         135.9206  137.1599  167.4875 H       1  UNL1        0.1452
     13 C         141.3727  141.4529  164.4479 C.3     1  UNL1        0.1552
     14 C         143.6631  140.2588  164.1675 C.ar    1  UNL1        0.1541
     15 C         145.1275  140.3164  163.8479 C.ar    1  UNL1        0.0398
     16 C         145.7661  141.6254  163.4892 C.ar    1  UNL1        0.0238
     17 C         144.9402  142.8770  163.4501 C.ar    1  UNL1        0.0987
     18 N         143.4757  142.8194  163.7697 N.ar    1  UNL1       -0.2432
     19 C         142.8372  141.5103  164.1284 C.ar    1  UNL1        0.1156
     20 C         143.2199  138.3704  165.8958 C.3     1  UNL1        0.2525
     21 O         143.0246  138.9498  164.5261 O.3     1  UNL1       -0.4702
     22 O         138.8835  139.5320  163.8046 O.3     1  UNL1       -0.4489
     23 C         137.9532  140.4392  163.0551 C.3     1  UNL1        0.2913
     24 C         137.9450  141.9108  163.3454 C.ar    1  UNL1        0.2504
     25 N         137.8239  143.0090  162.3308 N.ar    1  UNL1       -0.2077
     26 C         137.8605  144.3195  163.0596 C.ar    1  UNL1        0.1347
     27 C         138.0041  144.0313  164.5247 C.ar    1  UNL1        0.1440
     28 C         138.0819  145.0524  165.6207 C.3     1  UNL1        0.0742
     29 O         138.0563  142.5426  164.7013 O.2     1  UNL1       -0.4392
@<TRIPOS>BOND
     1    20    21    1
     2    21    14    1
     3    14    15   ar
     4    15    16   ar
     5    16    17   ar
     6    17    18   ar
     7    18    19   ar
     8    19    13    1
     9    13     1    1
    10     1     2   ar
    11     2     3   ar
    12     3     4   ar
    13     4     5   ar
    14     5     6   ar
    15     6     7    1
    16     6     8   ar
    17     8     9   ar
    18     9    22    1
    19    22    23    1
    20    23    24    1
    21    24    25   ar
    22    25    26   ar
    23    26    27   ar
    24    27    28    1
    25    27    29   ar
    26     9    10   ar
    27    19    14   ar
    28    10     1   ar
    29    10     4   ar
    30    29    24   ar
    31     7    11    1
    32     7    12    1
@<TRIPOS>MOLECULE
*****
 29 32 0 0 0
SMALL
GASTEIGER

@<TRIPOS>ATOM
      1 N         140.3012  140.1883  167.7882 N.ar    1  UNL1       -0.3153
      2 C         139.1179  139.9739  168.6847 C.ar    1  UNL1        0.0779
      3 C         139.3232  140.7902  169.9263 C.ar    1  UNL1        0.0395
      4 C         140.6334  141.5090  169.7971 C.ar    1  UNL1        0.1060
      5 N         141.3541  142.4542  170.7121 N.ar    1  UNL1       -0.2123
      6 C         142.6793  143.0274  170.3056 C.ar    1  UNL1        0.2163
      7 N         143.4000  143.9726  171.2205 N.pl3   1  UNL1       -0.3274
      8 N         143.2838  142.6554  168.9841 N.ar    1  UNL1       -0.1778
      9 C         142.5631  141.7101  168.0692 C.ar    1  UNL1        0.2455
     10 C         141.2379  141.1370  168.4757 C.ar    1  UNL1        0.1322
     11 H         143.0033  144.2168  172.0878 H       1  UNL1        0.1452
     12 H         144.2698  144.3488  170.9537 H       1  UNL1        0.1452
     13 C         140.5111  139.5635  166.4407 C.3     1  UNL1        0.1552
     14 C         140.6160  140.2419  163.9349 C.ar    1  UNL1        0.1541
     15 C         139.9650  140.8382  162.7222 C.ar    1  UNL1        0.0398
     16 C         138.5582  141.3523  162.8025 C.ar    1  UNL1        0.0238
     17 C         137.8023  141.2702  164.0955 C.ar    1  UNL1        0.0987
     18 N         138.4534  140.6739  165.3083 N.ar    1  UNL1       -0.2432
     19 C         139.8602  140.1598  165.2280 C.ar    1  UNL1        0.1156
     20 C         142.9240  140.1789  162.7435 C.3     1  UNL1        0.2525
     21 O         142.0229  139.7278  163.8546 O.3     1  UNL1       -0.4702
     22 O         143.1676  141.3381  166.7478 O.3     1  UNL1       -0.4489
     23 C         143.4589  142.4012  165.7304 C.3     1  UNL1        0.2913
     24 C         142.3309  143.1447  165.0785 C.ar    1  UNL1        0.2504
     25 N         142.3514  143.7525  163.7073 N.ar    1  UNL1       -0.2077
     26 C         141.0175  144.3943  163.4647 C.ar    1  UNL1        0.1347
     27 C         140.1726  144.1832  164.6860 C.ar    1  UNL1        0.1440
     28 C         138.7634  144.6606  164.8765 C.3     1  UNL1        0.0742
     29 O         140.9843  143.4109  165.6834 O.2     1  UNL1       -0.4392
@<TRIPOS>BOND
     1    20    21    1
     2    21    14    1
     3    14    15   ar
     4    15    16   ar
     5    16    17   ar
     6    17    18   ar
     7    18    19   ar
     8    19    13    1
     9    13     1    1
    10     1     2   ar
    11     2     3   ar
    12     3     4   ar
    13     4     5   ar
    14     5     6   ar
    15     6     7    1
    16     6     8   ar
    17     8     9   ar
    18     9    22    1
    19    22    23    1
    20    23    24    1
    21    24    25   ar
    22    25    26   ar
    23    26    27   ar
    24    27    28    1
    25    27    29   ar
    26     9    10   ar
    27    19    14   ar
    28    10     1   ar
    29    10     4   ar
    30    29    24   ar
    31     7    11    1
    32     7    12    1
@<TRIPOS>MOLECULE
*****
 29 32 0 0 0
SMALL
GASTEIGER

@<TRIPOS>ATOM
      1 N         140.9720  141.8092  166.7379 N.ar    1  UNL1       -0.3153
      2 C         141.1453  142.2089  168.1733 C.ar    1  UNL1        0.0779
      3 C         140.2441  141.3465  169.0065 C.ar    1  UNL1        0.0395
      4 C         139.5139  140.4139  168.0862 C.ar    1  UNL1        0.1060
      5 N         138.4976  139.3413  168.3436 N.ar    1  UNL1       -0.2123
      6 C         137.9310  138.5545  167.1990 C.ar    1  UNL1        0.2163
      7 N         136.9146  137.4819  167.4565 N.pl3   1  UNL1       -0.3274
      8 N         138.3808  138.8405  165.7969 N.ar    1  UNL1       -0.1778
      9 C         139.3973  139.9132  165.5395 C.ar    1  UNL1        0.2455
     10 C         139.9638  140.6999  166.6841 C.ar    1  UNL1        0.1322
     11 H         136.6194  137.2942  168.3768 H       1  UNL1        0.1452
     12 H         136.5427  136.9655  166.7053 H       1  UNL1        0.1452
     13 C         141.6822  142.4129  165.5627 C.3     1  UNL1        0.1552
     14 C         144.0650  142.6715  164.5597 C.ar    1  UNL1        0.1541
     15 C         145.3352  142.0549  164.0535 C.ar    1  UNL1        0.0398
     16 C         145.4930  140.5633  164.0438 C.ar    1  UNL1        0.0238
     17 C         144.3805  139.6882  164.5405 C.ar    1  UNL1        0.0987
     18 N         143.1103  140.3048  165.0468 N.ar    1  UNL1       -0.2432
     19 C         142.9525  141.7964  165.0564 C.ar    1  UNL1        0.1156
     20 C         143.5330  144.8859  163.3094 C.3     1  UNL1        0.2525
     21 O         143.9072  144.1631  164.5694 O.3     1  UNL1       -0.4702
     22 O         139.8471  140.1992  164.1374 O.3     1  UNL1       -0.4489
     23 C         138.8861  140.7864  163.1465 C.3     1  UNL1        0.2913
     24 C         138.7768  142.2751  162.9993 C.ar    1  UNL1        0.2504
     25 N         137.5664  143.1052  163.3087 N.ar    1  UNL1       -0.2077
     26 C         137.9002  144.5383  163.0175 C.ar    1  UNL1        0.1347
     27 C         139.3170  144.5939  162.5282 C.ar    1  UNL1        0.1440
     28 C         140.0614  145.8311  162.1215 C.3     1  UNL1        0.0742
     29 O         139.8589  143.1952  162.5169 O.2     1  UNL1       -0.4392
@<TRIPOS>BOND
     1    20    21    1
     2    21    14    1
     3    14    15   ar
     4    15    16   ar
     5    16    17   ar
     6    17    18   ar
     7    18    19   ar
     8    19    13    1
     9    13     1    1
    10     1     2   ar
    11     2     3   ar
    12     3     4   ar
    13     4     5   ar
    14     5     6   ar
    15     6     7    1
    16     6     8   ar
    17     8     9   ar
    18     9    22    1
    19    22    23    1
    20    23    24    1
    21    24    25   ar
    22    25    26   ar
    23    26    27   ar
    24    27    28    1
    25    27    29   ar
    26     9    10   ar
    27    19    14   ar
    28    10     1   ar
    29    10     4   ar
    30    29    24   ar
    31     7    11    1
    32     7    12    1
@<TRIPOS>MOLECULE
*****
 29 32 0 0 0
SMALL
GASTEIGER

@<TRIPOS>ATOM
      1 N         138.6316  142.8336  163.8607 N.ar    1  UNL1       -0.3153
      2 C         137.7458  143.9347  163.3576 C.ar    1  UNL1        0.0779
      3 C         138.6232  145.0533  162.8792 C.ar    1  UNL1        0.0395
      4 C         140.0512  144.6437  163.0866 C.ar    1  UNL1        0.1060
      5 N         141.3474  145.3426  162.8015 N.ar    1  UNL1       -0.2123
      6 C         142.6489  144.6696  163.1230 C.ar    1  UNL1        0.2163
      7 N         143.9451  145.3685  162.8379 N.pl3   1  UNL1       -0.3274
      8 N         142.6541  143.2978  163.7296 N.ar    1  UNL1       -0.1778
      9 C         141.3578  142.5989  164.0147 C.ar    1  UNL1        0.2455
     10 C         140.0564  143.2718  163.6932 C.ar    1  UNL1        0.1322
     11 H         143.9417  146.2689  162.4398 H       1  UNL1        0.1452
     12 H         144.7993  144.9269  163.0489 H       1  UNL1        0.1452
     13 C         138.1731  141.5243  164.4311 C.3     1  UNL1        0.1552
     14 C         138.5882  138.9739  164.1600 C.ar    1  UNL1        0.1541
     15 C         138.5894  137.7417  163.3046 C.ar    1  UNL1        0.0398
     16 C         138.1768  137.8276  161.8650 C.ar    1  UNL1        0.0238
     17 C         137.7629  139.1457  161.2808 C.ar    1  UNL1        0.0987
     18 N         137.7617  140.3779  162.1362 N.ar    1  UNL1       -0.2432
     19 C         138.1744  140.2920  163.5758 C.ar    1  UNL1        0.1156
     20 C         137.9838  138.5631  166.6531 C.3     1  UNL1        0.2525
     21 O         139.0008  138.8880  165.5995 O.3     1  UNL1       -0.4702
     22 O         141.3630  141.2270  164.6213 O.3     1  UNL1       -0.4489
     23 C         142.3003  140.9089  165.7484 C.3     1  UNL1        0.2913
     24 C         141.7553  140.5716  167.1046 C.ar    1  UNL1        0.2504
     25 N         142.4726  139.8082  168.1782 N.ar    1  UNL1       -0.2077
     26 C         141.5579  139.7033  169.3624 C.ar    1  UNL1        0.1347
     27 C         140.2752  140.4019  169.0207 C.ar    1  UNL1        0.1440
     28 C         139.0804  140.5397  169.9170 C.3     1  UNL1        0.0742
     29 O         140.3972  140.9386  167.6253 O.2     1  UNL1       -0.4392
@<TRIPOS>BOND
     1    20    21    1
     2    21    14    1
     3    14    15   ar
     4    15    16   ar
     5    16    17   ar
     6    17    18   ar
     7    18    19   ar
     8    19    13    1
     9    13     1    1
    10     1     2   ar
    11     2     3   ar
    12     3     4   ar
    13     4     5   ar
    14     5     6   ar
    15     6     7    1
    16     6     8   ar
    17     8     9   ar
    18     9    22    1
    19    22    23    1
    20    23    24    1
    21    24    25   ar
    22    25    26   ar
    23    26    27   ar
    24    27    28    1
    25    27    29   ar
    26     9    10   ar
    27    19    14   ar
    28    10     1   ar
    29    10     4   ar
    30    29    24   ar
    31     7    11    1
    32     7    12    1
@<TRIPOS>MOLECULE
*****
 29 32 0 0 0
SMALL
GASTEIGER

@<TRIPOS>ATOM
      1 N         141.6472  141.6378  166.0327 N.ar    1  UNL1       -0.3153
      2 C         142.9117  142.3104  166.4782 C.ar    1  UNL1        0.0779
      3 C         143.0403  142.1205  167.9605 C.ar    1  UNL1        0.0395
      4 C         141.8552  141.3305  168.4312 C.ar    1  UNL1        0.1060
      5 N         141.4488  140.8442  169.7907 N.ar    1  UNL1       -0.2123
      6 C         140.1814  140.0596  169.9588 C.ar    1  UNL1        0.2163
      7 N         139.7751  139.5733  171.3183 N.pl3   1  UNL1       -0.3274
      8 N         139.3204  139.7613  168.7673 N.ar    1  UNL1       -0.1778
      9 C         139.7268  140.2476  167.4077 C.ar    1  UNL1        0.2455
     10 C         140.9942  141.0322  167.2396 C.ar    1  UNL1        0.1322
     11 H         140.3402  139.7691  172.1003 H       1  UNL1        0.1452
     12 H         138.9433  139.0584  171.4286 H       1  UNL1        0.1452
     13 C         141.1269  141.5809  164.6269 C.3     1  UNL1        0.1552
     14 C         141.0445  143.8709  163.4024 C.ar    1  UNL1        0.1541
     15 C         140.2555  145.0196  162.8475 C.ar    1  UNL1        0.0398
     16 C         138.7600  145.0272  162.9624 C.ar    1  UNL1        0.0238
     17 C         138.0533  143.8861  163.6321 C.ar    1  UNL1        0.0987
     18 N         138.8424  142.7373  164.1869 N.ar    1  UNL1       -0.2432
     19 C         140.3380  142.7297  164.0721 C.ar    1  UNL1        0.1156
     20 C         143.3401  145.0084  163.8339 C.3     1  UNL1        0.2525
     21 O         142.5401  143.8632  163.2875 O.3     1  UNL1       -0.4702
     22 O         138.8658  139.9494  166.2162 O.3     1  UNL1       -0.4489
     23 C         139.0340  138.6566  165.4741 C.3     1  UNL1        0.2913
     24 C         138.8704  138.6208  163.9834 C.ar    1  UNL1        0.2504
     25 N         139.5259  137.6489  163.0476 N.ar    1  UNL1       -0.2077
     26 C         139.0832  137.9780  161.6527 C.ar    1  UNL1        0.1347
     27 C         138.1542  139.1533  161.7264 C.ar    1  UNL1        0.1440
     28 C         137.4757  139.8152  160.5638 C.3     1  UNL1        0.0742
     29 O         138.0226  139.5506  163.1669 O.2     1  UNL1       -0.4392
@<TRIPOS>BOND
     1    20    21    1
     2    21    14    1
     3    14    15   ar
     4    15    16   ar
     5    16    17   ar
     6    17    18   ar
     7    18    19   ar
     8    19    13    1
     9    13     1    1
    10     1     2   ar
    11     2     3   ar
    12     3     4   ar
    13     4     5   ar
    14     5     6   ar
    15     6     7    1
    16     6     8   ar
    17     8     9   ar
    18     9    22    1
    19    22    23    1
    20    23    24    1
    21    24    25   ar
    22    25    26   ar
    23    26    27   ar
    24    27    28    1
    25    27    29   ar
    26     9    10   ar
    27    19    14   ar
    28    10     1   ar
    29    10     4   ar
    30    29    24   ar
    31     7    11    1
    32     7    12    1
@<TRIPOS>MOLECULE
*****
 29 32 0 0 0
SMALL
GASTEIGER

@<TRIPOS>ATOM
      1 N         139.8034  143.5436  164.3689 N.ar    1  UNL1       -0.3153
      2 C         138.3652  143.9604  164.2805 C.ar    1  UNL1        0.0779
      3 C         138.1662  144.6644  162.9711 C.ar    1  UNL1        0.0395
      4 C         139.4814  144.6828  162.2501 C.ar    1  UNL1        0.1060
      5 N         139.8884  145.2408  160.9186 N.ar    1  UNL1       -0.2123
      6 C         141.3073  145.1061  160.4509 C.ar    1  UNL1        0.2163
      7 N         141.7143  145.6640  159.1194 N.pl3   1  UNL1       -0.3274
      8 N         142.3192  144.4134  161.3148 N.ar    1  UNL1       -0.1778
      9 C         141.9121  143.8554  162.6464 C.ar    1  UNL1        0.2455
     10 C         140.4933  143.9901  163.1140 C.ar    1  UNL1        0.1322
     11 H         141.0502  146.1187  158.5524 H       1  UNL1        0.1452
     12 H         142.6456  145.5756  158.8124 H       1  UNL1        0.1452
     13 C         140.4400  142.8093  165.5115 C.3     1  UNL1        0.1552
     14 C         140.0596  141.1499  167.4741 C.ar    1  UNL1        0.1541
     15 C         139.4154  139.9107  168.0211 C.ar    1  UNL1        0.0398
     16 C         138.5075  139.0914  167.1525 C.ar    1  UNL1        0.0238
     17 C         138.2438  139.5114  165.7368 C.ar    1  UNL1        0.0987
     18 N         138.8880  140.7508  165.1899 N.ar    1  UNL1       -0.2432
     19 C         139.7959  141.5700  166.0585 C.ar    1  UNL1        0.1156
     20 C         140.3965  143.0385  169.2262 C.3     1  UNL1        0.2525
     21 O         140.9675  141.9692  168.3427 O.3     1  UNL1       -0.4702
     22 O         142.9240  143.1627  163.5103 O.3     1  UNL1       -0.4489
     23 C         143.3828  141.7771  163.1641 C.3     1  UNL1        0.2913
     24 C         142.9169  140.6073  163.9794 C.ar    1  UNL1        0.2504
     25 N         143.2374  140.3550  165.4228 N.ar    1  UNL1       -0.2077
     26 C         142.5674  139.0762  165.8298 C.ar    1  UNL1        0.1347
     27 C         141.8328  138.5381  164.6379 C.ar    1  UNL1        0.1440
     28 C         141.0241  137.2754  164.5967 C.3     1  UNL1        0.0742
     29 O         142.0488  139.4843  163.4942 O.2     1  UNL1       -0.4392
@<TRIPOS>BOND
     1    20    21    1
     2    21    14    1
     3    14    15   ar
     4    15    16   ar
     5    16    17   ar
     6    17    18   ar
     7    18    19   ar
     8    19    13    1
     9    13     1    1
    10     1     2   ar
    11     2     3   ar
    12     3     4   ar
    13     4     5   ar
    14     5     6   ar
    15     6     7    1
    16     6     8   ar
    17     8     9   ar
    18     9    22    1
    19    22    23    1
    20    23    24    1
    21    24    25   ar
    22    25    26   ar
    23    26    27   ar
    24    27    28    1
    25    27    29   ar
    26     9    10   ar
    27    19    14   ar
    28    10     1   ar
    29    10     4   ar
    30    29    24   ar
    31     7    11    1
    32     7    12    1
