@<TRIPOS>MOLECULE
*****
 33 35 0 0 0
SMALL
GASTEIGER

@<TRIPOS>ATOM
      1 N         143.9083  142.2455  164.2837 N.3     1  UNL1       -0.2673
      2 C         143.6510  140.7680  164.3122 C.3     1  UNL1        0.1035
      3 C         143.2695  140.0979  165.5988 C.3     1  UNL1        0.1470
      4 C         142.8879  139.4277  166.8854 C.3     1  UNL1        0.1036
      5 N         142.7636  140.2351  168.1435 N.3     1  UNL1       -0.2663
      6 C         143.0208  141.7125  168.1149 C.3     1  UNL1        0.1036
      7 C         143.4024  142.3827  166.8283 C.3     1  UNL1        0.1470
      8 C         143.7839  143.0528  165.5417 C.3     1  UNL1        0.1035
      9 O         143.1452  140.9052  166.8569 O.3     1  UNL1       -0.3530
     10 C         144.2898  142.9156  162.9971 C.3     1  UNL1        0.0913
     11 C         144.0685  144.3891  162.8245 C.3     1  UNL1        0.1084
     12 N         142.8724  144.8841  162.0666 N.3     1  UNL1       -0.1819
     13 H         142.9885  145.8918  161.9588 H       1  UNL1        0.1485
     14 S         141.4934  144.6632  162.6140 S.O2    1  UNL1        0.0391
     15 O         141.1871  143.7419  161.4707 O.2     1  UNL1       -0.1576
     16 O         141.7998  145.5845  163.7574 O.2     1  UNL1       -0.1576
     17 C         139.0202  143.9499  162.2614 C.3     1  UNL1        0.0270
     18 C         140.1145  144.4423  163.1615 C.3     1  UNL1        0.1457
     19 C         139.8299  144.7137  164.6090 C.3     1  UNL1        0.0270
     20 C         142.3821  139.5649  169.4301 C.3     1  UNL1        0.1057
     21 C         141.5182  140.2844  170.4230 C.3     1  UNL1        0.1700
     22 O         142.0563  140.6172  171.7831 O.3     1  UNL1       -0.3793
     23 H         141.3747  141.0783  172.2966 H       1  UNL1        0.2106
     24 C         140.1161  140.6712  170.0560 C.3     1  UNL1        0.2358
     25 O         139.2412  139.7044  169.3144 O.3     1  UNL1       -0.4728
     26 C         139.0494  139.8499  167.8339 C.ar    1  UNL1        0.1387
     27 C         139.6422  141.0239  167.1126 C.ar    1  UNL1        0.0376
     28 C         139.4504  141.1695  165.6321 C.ar    1  UNL1        0.0134
     29 C         138.6657  140.1411  164.8728 C.ar    1  UNL1        0.0686
     30 C         138.0728  138.9670  165.5940 C.ar    1  UNL1        0.0134
     31 C         138.2646  138.8214  167.0745 C.ar    1  UNL1        0.0376
     32 C         138.4739  140.2867  163.3922 C.1     1  UNL1        0.1004
     33 N         138.2821  140.4323  161.9117 N.1     1  UNL1       -0.1908
@<TRIPOS>BOND
     1    17    18    1
     2    18    19    1
     3    18    14    1
     4    14    15    2
     5    14    16    2
     6    14    12    1
     7    12    11    1
     8    11    10    1
     9    10     1    1
    10     1     2    1
    11     2     3    1
    12     3     4    1
    13     4     5    1
    14     5    20    1
    15    20    21    1
    16    21    22    1
    17    21    24    1
    18    24    25    1
    19    25    26    1
    20    26    27   ar
    21    27    28   ar
    22    28    29   ar
    23    29    32    1
    24    32    33    3
    25    29    30   ar
    26    30    31   ar
    27     5     6    1
    28     6     7    1
    29     7     8    1
    30     7     9    1
    31     8     1    1
    32     9     3    1
    33    31    26   ar
    34    12    13    1
    35    22    23    1
@<TRIPOS>MOLECULE
*****
 33 35 0 0 0
SMALL
GASTEIGER

@<TRIPOS>ATOM
      1 N         143.0196  139.9318  161.3017 N.3     1  UNL1       -0.2673
      2 C         143.4317  139.6882  162.7233 C.3     1  UNL1        0.1035
      3 C         142.4667  139.0646  163.6876 C.3     1  UNL1        0.1470
      4 C         141.5017  138.4409  164.6518 C.3     1  UNL1        0.1036
      5 N         140.1246  138.0609  164.1946 N.3     1  UNL1       -0.2663
      6 C         139.7125  138.3045  162.7731 C.3     1  UNL1        0.1036
      7 C         140.6775  138.9281  161.8088 C.3     1  UNL1        0.1470
      8 C         141.6425  139.5518  160.8445 C.3     1  UNL1        0.1035
      9 O         141.0896  138.6845  163.2303 O.3     1  UNL1       -0.3530
     10 C         143.9846  140.5554  160.3375 C.3     1  UNL1        0.0913
     11 C         144.2541  142.0299  160.3941 C.3     1  UNL1        0.1084
     12 N         145.1623  142.5863  161.4503 N.3     1  UNL1       -0.1819
     13 H         145.7528  141.8169  161.7660 H       1  UNL1        0.1485
     14 S         144.5825  143.2201  162.6801 S.O2    1  UNL1        0.0391
     15 O         143.6970  144.0745  161.8224 O.2     1  UNL1       -0.1576
     16 O         145.4679  142.3656  163.5378 O.2     1  UNL1       -0.1576
     17 C         143.5505  145.2836  163.8748 C.3     1  UNL1        0.0270
     18 C         144.0027  143.8537  163.9098 C.3     1  UNL1        0.1457
     19 C         143.8752  143.0576  165.1747 C.3     1  UNL1        0.0270
     20 C         139.1596  137.4373  165.1589 C.3     1  UNL1        0.1057
     21 C         138.2529  138.3056  165.9798 C.3     1  UNL1        0.1700
     22 O         137.5941  137.7518  167.2084 O.3     1  UNL1       -0.3793
     23 H         137.0456  138.4387  167.6187 H       1  UNL1        0.2106
     24 C         138.0050  139.7277  165.5722 C.3     1  UNL1        0.2358
     25 O         139.0665  140.7655  165.7874 O.3     1  UNL1       -0.4728
     26 C         139.1539  141.9501  164.8714 C.ar    1  UNL1        0.1387
     27 C         140.3572  142.1331  163.9947 C.ar    1  UNL1        0.0376
     28 C         140.4446  143.3177  163.0788 C.ar    1  UNL1        0.0134
     29 C         139.3287  144.3193  163.0395 C.ar    1  UNL1        0.0686
     30 C         138.1254  144.1364  163.9162 C.ar    1  UNL1        0.0134
     31 C         138.0380  142.9518  164.8322 C.ar    1  UNL1        0.0376
     32 C         139.4161  145.5040  162.1235 C.1     1  UNL1        0.1004
     33 N         139.5035  146.6886  161.2075 N.1     1  UNL1       -0.1908
@<TRIPOS>BOND
     1    17    18    1
     2    18    19    1
     3    18    14    1
     4    14    15    2
     5    14    16    2
     6    14    12    1
     7    12    11    1
     8    11    10    1
     9    10     1    1
    10     1     2    1
    11     2     3    1
    12     3     4    1
    13     4     5    1
    14     5    20    1
    15    20    21    1
    16    21    22    1
    17    21    24    1
    18    24    25    1
    19    25    26    1
    20    26    27   ar
    21    27    28   ar
    22    28    29   ar
    23    29    32    1
    24    32    33    3
    25    29    30   ar
    26    30    31   ar
    27     5     6    1
    28     6     7    1
    29     7     8    1
    30     7     9    1
    31     8     1    1
    32     9     3    1
    33    31    26   ar
    34    12    13    1
    35    22    23    1
@<TRIPOS>MOLECULE
*****
 33 35 0 0 0
SMALL
GASTEIGER

@<TRIPOS>ATOM
      1 N         141.5559  143.7013  160.5269 N.3     1  UNL1       -0.2673
      2 C         140.5261  142.6124  160.5858 C.3     1  UNL1        0.1035
      3 C         140.8488  141.3104  161.2570 C.3     1  UNL1        0.1470
      4 C         141.1714  140.0083  161.9283 C.3     1  UNL1        0.1036
      5 N         142.5240  139.7952  162.5407 N.3     1  UNL1       -0.2663
      6 C         143.5539  140.8842  162.4818 C.3     1  UNL1        0.1036
      7 C         143.2312  142.1862  161.8106 C.3     1  UNL1        0.1470
      8 C         142.9085  143.4882  161.1393 C.3     1  UNL1        0.1035
      9 O         142.2013  141.0973  161.8694 O.3     1  UNL1       -0.3530
     10 C         141.2332  145.0034  159.8557 C.3     1  UNL1        0.0913
     11 C         140.2961  145.9735  160.5119 C.3     1  UNL1        0.1084
     12 N         140.3730  146.2063  161.9918 N.3     1  UNL1       -0.1819
     13 H         141.3488  146.0783  162.2597 H       1  UNL1        0.1485
     14 S         139.5535  145.3669  162.9266 S.O2    1  UNL1        0.0391
     15 O         138.3233  145.6763  162.1262 O.2     1  UNL1       -0.1576
     16 O         140.7837  145.0574  163.7271 O.2     1  UNL1       -0.1576
     17 C         138.8747  144.7018  165.3447 C.3     1  UNL1        0.0270
     18 C         138.7341  144.5274  163.8614 C.3     1  UNL1        0.1457
     19 C         137.7741  143.5137  163.3131 C.3     1  UNL1        0.0270
     20 C         142.8467  138.4932  163.2119 C.3     1  UNL1        0.1057
     21 C         141.7395  137.5953  163.6786 C.3     1  UNL1        0.1700
     22 O         141.2757  136.4632  162.8106 O.3     1  UNL1       -0.3793
     23 H         140.5594  135.9856  163.2576 H       1  UNL1        0.2106
     24 C         141.0960  137.8295  165.0132 C.3     1  UNL1        0.2358
     25 O         140.0190  138.8639  165.1553 O.3     1  UNL1       -0.4728
     26 C         140.1637  139.9633  166.1654 C.ar    1  UNL1        0.1387
     27 C         139.5718  139.8065  167.5347 C.ar    1  UNL1        0.0376
     28 C         139.7165  140.9059  168.5448 C.ar    1  UNL1        0.0134
     29 C         140.4531  142.1622  168.1855 C.ar    1  UNL1        0.0686
     30 C         141.0450  142.3191  166.8162 C.ar    1  UNL1        0.0134
     31 C         140.9003  141.2197  165.8061 C.ar    1  UNL1        0.0376
     32 C         140.5978  143.2617  169.1956 C.1     1  UNL1        0.1004
     33 N         140.7426  144.3612  170.2057 N.1     1  UNL1       -0.1908
@<TRIPOS>BOND
     1    17    18    1
     2    18    19    1
     3    18    14    1
     4    14    15    2
     5    14    16    2
     6    14    12    1
     7    12    11    1
     8    11    10    1
     9    10     1    1
    10     1     2    1
    11     2     3    1
    12     3     4    1
    13     4     5    1
    14     5    20    1
    15    20    21    1
    16    21    22    1
    17    21    24    1
    18    24    25    1
    19    25    26    1
    20    26    27   ar
    21    27    28   ar
    22    28    29   ar
    23    29    32    1
    24    32    33    3
    25    29    30   ar
    26    30    31   ar
    27     5     6    1
    28     6     7    1
    29     7     8    1
    30     7     9    1
    31     8     1    1
    32     9     3    1
    33    31    26   ar
    34    12    13    1
    35    22    23    1
@<TRIPOS>MOLECULE
*****
 33 35 0 0 0
SMALL
GASTEIGER

@<TRIPOS>ATOM
      1 N         142.9964  142.1965  163.4966 N.3     1  UNL1       -0.2673
      2 C         142.6760  140.7356  163.6110 C.3     1  UNL1        0.1035
      3 C         142.4396  140.1229  164.9596 C.3     1  UNL1        0.1470
      4 C         142.2032  139.5102  166.3082 C.3     1  UNL1        0.1036
      5 N         142.2871  140.3584  167.5424 N.3     1  UNL1       -0.2663
      6 C         142.6075  141.8193  167.4281 C.3     1  UNL1        0.1036
      7 C         142.8439  142.4320  166.0795 C.3     1  UNL1        0.1470
      8 C         143.0803  143.0447  164.7309 C.3     1  UNL1        0.1035
      9 O         142.5235  140.9711  166.1938 O.3     1  UNL1       -0.3530
     10 C         143.2328  142.8092  162.1480 C.3     1  UNL1        0.0913
     11 C         142.0809  143.0338  161.2139 C.3     1  UNL1        0.1084
     12 N         141.2152  144.2489  161.3693 N.3     1  UNL1       -0.1819
     13 H         141.8394  145.0326  161.5604 H       1  UNL1        0.1485
     14 S         140.1471  144.2793  162.4221 S.O2    1  UNL1        0.0391
     15 O         140.7500  145.5263  162.9978 O.2     1  UNL1       -0.1576
     16 O         139.5443  143.0322  161.8465 O.2     1  UNL1       -0.1576
     17 C         139.4450  144.5629  164.9074 C.3     1  UNL1        0.0270
     18 C         139.0791  144.3096  163.4749 C.3     1  UNL1        0.1457
     19 C         137.6452  144.0865  163.0952 C.3     1  UNL1        0.0270
     20 C         142.0507  139.7457  168.8910 C.3     1  UNL1        0.1057
     21 C         140.6842  139.7942  169.5077 C.3     1  UNL1        0.1700
     22 O         140.4867  139.3566  170.9288 O.3     1  UNL1       -0.3793
     23 H         139.5516  139.4504  171.1691 H       1  UNL1        0.2106
     24 C         139.5152  140.2803  168.7033 C.3     1  UNL1        0.2358
     25 O         138.6671  139.3018  167.9460 O.3     1  UNL1       -0.4728
     26 C         138.6950  139.2885  166.4463 C.ar    1  UNL1        0.1387
     27 C         138.6687  140.5802  165.6842 C.ar    1  UNL1        0.0376
     28 C         138.6967  140.5669  164.1846 C.ar    1  UNL1        0.0134
     29 C         138.7509  139.2619  163.4470 C.ar    1  UNL1        0.0686
     30 C         138.7771  137.9701  164.2091 C.ar    1  UNL1        0.0134
     31 C         138.7492  137.9834  165.7088 C.ar    1  UNL1        0.0376
     32 C         138.7788  139.2486  161.9473 C.1     1  UNL1        0.1004
     33 N         138.8067  139.2353  160.4476 N.1     1  UNL1       -0.1908
@<TRIPOS>BOND
     1    17    18    1
     2    18    19    1
     3    18    14    1
     4    14    15    2
     5    14    16    2
     6    14    12    1
     7    12    11    1
     8    11    10    1
     9    10     1    1
    10     1     2    1
    11     2     3    1
    12     3     4    1
    13     4     5    1
    14     5    20    1
    15    20    21    1
    16    21    22    1
    17    21    24    1
    18    24    25    1
    19    25    26    1
    20    26    27   ar
    21    27    28   ar
    22    28    29   ar
    23    29    32    1
    24    32    33    3
    25    29    30   ar
    26    30    31   ar
    27     5     6    1
    28     6     7    1
    29     7     8    1
    30     7     9    1
    31     8     1    1
    32     9     3    1
    33    31    26   ar
    34    12    13    1
    35    22    23    1
@<TRIPOS>MOLECULE
*****
 33 35 0 0 0
SMALL
GASTEIGER

@<TRIPOS>ATOM
      1 N         141.1578  142.6218  162.9988 N.3     1  UNL1       -0.2673
      2 C         141.5984  141.1951  163.1415 C.3     1  UNL1        0.1035
      3 C         141.6861  140.5698  164.5021 C.3     1  UNL1        0.1470
      4 C         141.7738  139.9445  165.8628 C.3     1  UNL1        0.1036
      5 N         141.4209  140.7459  167.0806 N.3     1  UNL1       -0.2663
      6 C         140.9804  142.1725  166.9379 C.3     1  UNL1        0.1036
      7 C         140.8927  142.7979  165.5772 C.3     1  UNL1        0.1470
      8 C         140.8050  143.4232  164.2166 C.3     1  UNL1        0.1035
      9 O         141.3332  141.3712  165.7200 O.3     1  UNL1       -0.3530
     10 C         141.0701  143.2471  161.6381 C.3     1  UNL1        0.0913
     11 C         142.2850  143.3066  160.7604 C.3     1  UNL1        0.1084
     12 N         143.5499  143.9299  161.2717 N.3     1  UNL1       -0.1819
     13 H         144.2307  143.8786  160.5139 H       1  UNL1        0.1485
     14 S         144.2193  143.3738  162.4936 S.O2    1  UNL1        0.0391
     15 O         143.9525  144.6567  163.2236 O.2     1  UNL1       -0.1576
     16 O         144.4862  142.0910  161.7635 O.2     1  UNL1       -0.1576
     17 C         144.5979  143.4072  165.0637 C.3     1  UNL1        0.0270
     18 C         144.8887  142.8178  163.7153 C.3     1  UNL1        0.1457
     19 C         145.8489  141.6724  163.5888 C.3     1  UNL1        0.0270
     20 C         141.5086  140.1205  168.4413 C.3     1  UNL1        0.1057
     21 C         140.2598  139.8699  169.2334 C.3     1  UNL1        0.1700
     22 O         140.3528  139.5145  170.6878 O.3     1  UNL1       -0.3793
     23 H         139.4609  139.3866  171.0470 H       1  UNL1        0.2106
     24 C         138.9179  139.9747  168.5713 C.3     1  UNL1        0.2358
     25 O         138.4003  138.8375  167.7413 O.3     1  UNL1       -0.4728
     26 C         138.4334  138.9258  166.2442 C.ar    1  UNL1        0.1387
     27 C         138.0706  140.2106  165.5605 C.ar    1  UNL1        0.0376
     28 C         138.1038  140.2989  164.0635 C.ar    1  UNL1        0.0134
     29 C         138.4996  139.1024  163.2502 C.ar    1  UNL1        0.0686
     30 C         138.8625  137.8174  163.9339 C.ar    1  UNL1        0.0134
     31 C         138.8293  137.7291  165.4309 C.ar    1  UNL1        0.0376
     32 C         138.5328  139.1906  161.7531 C.1     1  UNL1        0.1004
     33 N         138.5659  139.2789  160.2561 N.1     1  UNL1       -0.1908
@<TRIPOS>BOND
     1    17    18    1
     2    18    19    1
     3    18    14    1
     4    14    15    2
     5    14    16    2
     6    14    12    1
     7    12    11    1
     8    11    10    1
     9    10     1    1
    10     1     2    1
    11     2     3    1
    12     3     4    1
    13     4     5    1
    14     5    20    1
    15    20    21    1
    16    21    22    1
    17    21    24    1
    18    24    25    1
    19    25    26    1
    20    26    27   ar
    21    27    28   ar
    22    28    29   ar
    23    29    32    1
    24    32    33    3
    25    29    30   ar
    26    30    31   ar
    27     5     6    1
    28     6     7    1
    29     7     8    1
    30     7     9    1
    31     8     1    1
    32     9     3    1
    33    31    26   ar
    34    12    13    1
    35    22    23    1
@<TRIPOS>MOLECULE
*****
 33 35 0 0 0
SMALL
GASTEIGER

@<TRIPOS>ATOM
      1 N         141.7461  142.2061  162.9565 N.3     1  UNL1       -0.2673
      2 C         141.5137  143.1488  164.0999 C.3     1  UNL1        0.1035
      3 C         141.5262  142.6359  165.5094 C.3     1  UNL1        0.1470
      4 C         141.5387  142.1229  166.9189 C.3     1  UNL1        0.1036
      5 N         141.7837  140.6672  167.1851 N.3     1  UNL1       -0.2663
      6 C         142.0161  139.7245  166.0418 C.3     1  UNL1        0.1036
      7 C         142.0036  140.2375  164.6322 C.3     1  UNL1        0.1470
      8 C         141.9911  140.7504  163.2227 C.3     1  UNL1        0.1035
      9 O         141.7712  141.1802  165.7756 O.3     1  UNL1       -0.3530
     10 C         141.7336  142.7191  161.5470 C.3     1  UNL1        0.0913
     11 C         142.4774  143.9743  161.1991 C.3     1  UNL1        0.1084
     12 N         141.7323  145.1680  160.6795 N.3     1  UNL1       -0.1819
     13 H         140.9784  145.3552  161.3406 H       1  UNL1        0.1485
     14 S         141.1116  145.1289  159.3145 S.O2    1  UNL1        0.0391
     15 O         142.4224  144.6916  158.7309 O.2     1  UNL1       -0.1576
     16 O         139.8008  145.5662  159.8981 O.2     1  UNL1       -0.1576
     17 C         140.0737  146.3648  157.2785 C.3     1  UNL1        0.0270
     18 C         140.4909  145.0898  157.9495 C.3     1  UNL1        0.1457
     19 C         140.2873  143.7756  157.2556 C.3     1  UNL1        0.0270
     20 C         141.7962  140.1542  168.5946 C.3     1  UNL1        0.1057
     21 C         140.5035  139.8887  169.3076 C.3     1  UNL1        0.1700
     22 O         140.5161  139.3608  170.7116 O.3     1  UNL1       -0.3793
     23 H         139.6043  139.2459  171.0220 H       1  UNL1        0.2106
     24 C         139.1983  140.1509  168.6166 C.3     1  UNL1        0.2358
     25 O         138.5284  139.0570  167.8388 O.3     1  UNL1       -0.4728
     26 C         138.5537  139.0794  166.3391 C.ar    1  UNL1        0.1387
     27 C         138.8258  137.8178  165.5748 C.ar    1  UNL1        0.0376
     28 C         138.8512  137.8401  164.0752 C.ar    1  UNL1        0.0134
     29 C         138.6044  139.1240  163.3399 C.ar    1  UNL1        0.0686
     30 C         138.3323  140.3857  164.1043 C.ar    1  UNL1        0.0134
     31 C         138.3070  140.3634  165.6039 C.ar    1  UNL1        0.0376
     32 C         138.6297  139.1463  161.8403 C.1     1  UNL1        0.1004
     33 N         138.6551  139.1686  160.3407 N.1     1  UNL1       -0.1908
@<TRIPOS>BOND
     1    17    18    1
     2    18    19    1
     3    18    14    1
     4    14    15    2
     5    14    16    2
     6    14    12    1
     7    12    11    1
     8    11    10    1
     9    10     1    1
    10     1     2    1
    11     2     3    1
    12     3     4    1
    13     4     5    1
    14     5    20    1
    15    20    21    1
    16    21    22    1
    17    21    24    1
    18    24    25    1
    19    25    26    1
    20    26    27   ar
    21    27    28   ar
    22    28    29   ar
    23    29    32    1
    24    32    33    3
    25    29    30   ar
    26    30    31   ar
    27     5     6    1
    28     6     7    1
    29     7     8    1
    30     7     9    1
    31     8     1    1
    32     9     3    1
    33    31    26   ar
    34    12    13    1
    35    22    23    1
@<TRIPOS>MOLECULE
*****
 33 35 0 0 0
SMALL
GASTEIGER

@<TRIPOS>ATOM
      1 N         139.6518  142.6008  159.5666 N.3     1  UNL1       -0.2673
      2 C         138.3865  142.3853  160.3427 C.3     1  UNL1        0.1035
      3 C         138.2187  141.1489  161.1753 C.3     1  UNL1        0.1470
      4 C         138.0510  139.9125  162.0079 C.3     1  UNL1        0.1036
      5 N         139.1485  138.8916  162.0643 N.3     1  UNL1       -0.2663
      6 C         140.4138  139.1072  161.2881 C.3     1  UNL1        0.1036
      7 C         140.5816  140.3436  160.4555 C.3     1  UNL1        0.1470
      8 C         140.7493  141.5800  159.6230 C.3     1  UNL1        0.1035
      9 O         139.3163  140.1280  161.2317 O.3     1  UNL1       -0.3530
     10 C         139.8195  143.8372  158.7340 C.3     1  UNL1        0.0913
     11 C         140.5226  145.0343  159.3021 C.3     1  UNL1        0.1084
     12 N         139.8719  145.8420  160.3857 N.3     1  UNL1       -0.1819
     13 H         140.2681  146.7804  160.3317 H       1  UNL1        0.1485
     14 S         139.9846  145.4060  161.8165 S.O2    1  UNL1        0.0391
     15 O         138.5470  145.7705  162.0409 O.2     1  UNL1       -0.1576
     16 O         141.4222  145.0415  161.5922 O.2     1  UNL1       -0.1576
     17 C         138.8742  144.5294  163.9957 C.3     1  UNL1        0.0270
     18 C         140.0973  144.9700  163.2473 C.3     1  UNL1        0.1457
     19 C         141.4331  144.9746  163.9298 C.3     1  UNL1        0.0270
     20 C         138.9807  137.6552  162.8969 C.3     1  UNL1        0.1057
     21 C         139.5834  137.5874  164.2688 C.3     1  UNL1        0.1700
     22 O         140.9425  136.9825  164.4619 O.3     1  UNL1       -0.3793
     23 H         141.1813  137.0172  165.4013 H       1  UNL1        0.2106
     24 C         138.8272  138.1244  165.4476 C.3     1  UNL1        0.2358
     25 O         138.5564  139.5957  165.5580 O.3     1  UNL1       -0.4728
     26 C         139.2934  140.4198  166.5718 C.ar    1  UNL1        0.1387
     27 C         139.9163  141.7235  166.1689 C.ar    1  UNL1        0.0376
     28 C         140.6532  142.5476  167.1827 C.ar    1  UNL1        0.0134
     29 C         140.7672  142.0681  168.5993 C.ar    1  UNL1        0.0686
     30 C         140.1442  140.7644  169.0023 C.ar    1  UNL1        0.0134
     31 C         139.4073  139.9403  167.9886 C.ar    1  UNL1        0.0376
     32 C         141.5041  142.8923  169.6131 C.1     1  UNL1        0.1004
     33 N         142.2410  143.7164  170.6269 N.1     1  UNL1       -0.1908
@<TRIPOS>BOND
     1    17    18    1
     2    18    19    1
     3    18    14    1
     4    14    15    2
     5    14    16    2
     6    14    12    1
     7    12    11    1
     8    11    10    1
     9    10     1    1
    10     1     2    1
    11     2     3    1
    12     3     4    1
    13     4     5    1
    14     5    20    1
    15    20    21    1
    16    21    22    1
    17    21    24    1
    18    24    25    1
    19    25    26    1
    20    26    27   ar
    21    27    28   ar
    22    28    29   ar
    23    29    32    1
    24    32    33    3
    25    29    30   ar
    26    30    31   ar
    27     5     6    1
    28     6     7    1
    29     7     8    1
    30     7     9    1
    31     8     1    1
    32     9     3    1
    33    31    26   ar
    34    12    13    1
    35    22    23    1
@<TRIPOS>MOLECULE
*****
 33 35 0 0 0
SMALL
GASTEIGER

@<TRIPOS>ATOM
      1 N         143.5354  140.2680  164.3625 N.3     1  UNL1       -0.2673
      2 C         143.2375  139.0243  165.1464 C.3     1  UNL1        0.1035
      3 C         142.9575  139.1139  166.6173 C.3     1  UNL1        0.1470
      4 C         142.6775  139.2035  168.0882 C.3     1  UNL1        0.1036
      5 N         142.6954  140.5368  168.7752 N.3     1  UNL1       -0.2663
      6 C         142.9933  141.7804  167.9913 C.3     1  UNL1        0.1036
      7 C         143.2733  141.6908  166.5204 C.3     1  UNL1        0.1470
      8 C         143.5533  141.6012  165.0495 C.3     1  UNL1        0.1035
      9 O         142.9754  140.4472  167.3043 O.3     1  UNL1       -0.3530
     10 C         143.8154  140.1784  162.8916 C.3     1  UNL1        0.0913
     11 C         142.8575  140.7819  161.9077 C.3     1  UNL1        0.1084
     12 N         143.1140  142.1529  161.3556 N.3     1  UNL1       -0.1819
     13 H         144.1013  142.1882  161.1019 H       1  UNL1        0.1485
     14 S         142.8396  143.3638  162.1973 S.O2    1  UNL1        0.0391
     15 O         141.3747  143.0416  162.1833 O.2     1  UNL1       -0.1576
     16 O         144.3045  143.6859  162.2113 O.2     1  UNL1       -0.1576
     17 C         143.6730  145.2046  163.8304 C.3     1  UNL1        0.0270
     18 C         142.5653  144.5746  163.0390 C.3     1  UNL1        0.1457
     19 C         141.1833  145.1557  163.0893 C.3     1  UNL1        0.0270
     20 C         142.4154  140.6264  170.2461 C.3     1  UNL1        0.1057
     21 C         141.0126  140.4692  170.7535 C.3     1  UNL1        0.1700
     22 O         140.7220  140.6279  172.2166 O.3     1  UNL1       -0.3793
     23 H         139.7741  140.4955  172.3741 H       1  UNL1        0.2106
     24 C         139.9004  140.1532  169.7979 C.3     1  UNL1        0.2358
     25 O         139.6487  141.0455  168.6187 O.3     1  UNL1       -0.4728
     26 C         139.3556  140.4474  167.2747 C.ar    1  UNL1        0.1387
     27 C         138.6398  139.1327  167.1788 C.ar    1  UNL1        0.0376
     28 C         138.3467  138.5346  165.8348 C.ar    1  UNL1        0.0134
     29 C         138.7694  139.2511  164.5867 C.ar    1  UNL1        0.0686
     30 C         139.4853  140.5658  164.6825 C.ar    1  UNL1        0.0134
     31 C         139.7783  141.1639  166.0265 C.ar    1  UNL1        0.0376
     32 C         138.4763  138.6529  163.2427 C.1     1  UNL1        0.1004
     33 N         138.1832  138.0548  161.8987 N.1     1  UNL1       -0.1908
@<TRIPOS>BOND
     1    17    18    1
     2    18    19    1
     3    18    14    1
     4    14    15    2
     5    14    16    2
     6    14    12    1
     7    12    11    1
     8    11    10    1
     9    10     1    1
    10     1     2    1
    11     2     3    1
    12     3     4    1
    13     4     5    1
    14     5    20    1
    15    20    21    1
    16    21    22    1
    17    21    24    1
    18    24    25    1
    19    25    26    1
    20    26    27   ar
    21    27    28   ar
    22    28    29   ar
    23    29    32    1
    24    32    33    3
    25    29    30   ar
    26    30    31   ar
    27     5     6    1
    28     6     7    1
    29     7     8    1
    30     7     9    1
    31     8     1    1
    32     9     3    1
    33    31    26   ar
    34    12    13    1
    35    22    23    1
@<TRIPOS>MOLECULE
*****
 33 35 0 0 0
SMALL
GASTEIGER

@<TRIPOS>ATOM
      1 N         138.4796  140.1122  163.5053 N.3     1  UNL1       -0.2673
      2 C         138.5897  139.3461  164.7902 C.3     1  UNL1        0.1035
      3 C         139.1860  139.9972  166.0029 C.3     1  UNL1        0.1470
      4 C         139.7823  140.6483  167.2156 C.3     1  UNL1        0.1036
      5 N         140.2684  142.0654  167.1434 N.3     1  UNL1       -0.2663
      6 C         140.1584  142.8315  165.8585 C.3     1  UNL1        0.1036
      7 C         139.5621  142.1804  164.6458 C.3     1  UNL1        0.1470
      8 C         138.9658  141.5294  163.4331 C.3     1  UNL1        0.1035
      9 O         139.6722  141.4143  165.9307 O.3     1  UNL1       -0.3530
     10 C         137.8834  139.4612  162.2926 C.3     1  UNL1        0.0913
     11 C         138.2069  138.0318  161.9733 C.3     1  UNL1        0.1084
     12 N         139.4821  137.6928  161.2599 N.3     1  UNL1       -0.1819
     13 H         139.4788  136.6832  161.1144 H       1  UNL1        0.1485
     14 S         140.8034  138.0364  161.8814 S.O2    1  UNL1        0.0391
     15 O         141.0472  139.0499  160.8029 O.2     1  UNL1       -0.1576
     16 O         140.5596  137.0228  162.9599 O.2     1  UNL1       -0.1576
     17 C         143.3981  138.0963  161.7627 C.3     1  UNL1        0.0270
     18 C         142.1246  138.3799  162.5030 C.3     1  UNL1        0.1457
     19 C         142.1724  139.0070  163.8647 C.3     1  UNL1        0.0270
     20 C         140.8647  142.7165  168.3560 C.3     1  UNL1        0.1057
     21 C         142.3428  142.6381  168.5991 C.3     1  UNL1        0.1700
     22 O         142.9069  143.0442  169.9284 O.3     1  UNL1       -0.3793
     23 H         143.8705  142.9336  169.9180 H       1  UNL1        0.2106
     24 C         143.2568  142.1537  167.5128 C.3     1  UNL1        0.2358
     25 O         144.0940  143.1332  166.7448 O.3     1  UNL1       -0.4728
     26 C         144.2084  143.0149  165.2538 C.ar    1  UNL1        0.1387
     27 C         144.6714  141.7284  164.6369 C.ar    1  UNL1        0.0376
     28 C         144.7858  141.6101  163.1459 C.ar    1  UNL1        0.0134
     29 C         144.4371  142.7782  162.2719 C.ar    1  UNL1        0.0686
     30 C         143.9740  144.0647  162.8889 C.ar    1  UNL1        0.0134
     31 C         143.8597  144.1830  164.3798 C.ar    1  UNL1        0.0376
     32 C         144.5515  142.6599  160.7810 C.1     1  UNL1        0.1004
     33 N         144.6659  142.5416  159.2900 N.1     1  UNL1       -0.1908
@<TRIPOS>BOND
     1    17    18    1
     2    18    19    1
     3    18    14    1
     4    14    15    2
     5    14    16    2
     6    14    12    1
     7    12    11    1
     8    11    10    1
     9    10     1    1
    10     1     2    1
    11     2     3    1
    12     3     4    1
    13     4     5    1
    14     5    20    1
    15    20    21    1
    16    21    22    1
    17    21    24    1
    18    24    25    1
    19    25    26    1
    20    26    27   ar
    21    27    28   ar
    22    28    29   ar
    23    29    32    1
    24    32    33    3
    25    29    30   ar
    26    30    31   ar
    27     5     6    1
    28     6     7    1
    29     7     8    1
    30     7     9    1
    31     8     1    1
    32     9     3    1
    33    31    26   ar
    34    12    13    1
    35    22    23    1
