@<TRIPOS>MOLECULE
*****
 38 41 0 0 0
SMALL
GASTEIGER

@<TRIPOS>ATOM
      1 N         141.0598  140.3370  164.1415 N.ar    1  UNL1       -0.1967
      2 N         141.2883  141.5426  165.0042 N.ar    1  UNL1       -0.1666
      3 C         140.4144  141.4171  166.2169 C.ar    1  UNL1        0.0850
      4 C         139.6459  140.1339  166.1036 C.ar    1  UNL1        0.0342
      5 C         138.6345  139.4871  167.0028 C.ar    1  UNL1        0.0141
      6 C         138.0219  138.1727  166.6193 C.ar    1  UNL1        0.0578
      7 CL        137.0104  137.5258  167.5184 Cl      1  UNL1       -0.0822
      8 C         138.4208  137.5052  165.3366 C.ar    1  UNL1        0.0129
      9 C         139.4322  138.1520  164.4374 C.ar    1  UNL1        0.0202
     10 C         140.0448  139.4664  164.8209 C.ar    1  UNL1        0.0871
     11 C         143.0671  139.4822  160.2056 C.ar    1  UNL1        0.1161
     12 C         143.1990  138.5113  161.3414 C.ar    1  UNL1        0.1449
     13 N         144.0001  137.2554  161.1652 N.pl3   1  UNL1       -0.3415
     14 N         142.5300  138.7962  162.6533 N.ar    1  UNL1       -0.1941
     15 C         141.7289  140.0520  162.8295 C.ar    1  UNL1        0.2554
     16 N         141.5969  141.0230  161.6937 N.ar    1  UNL1       -0.1941
     17 C         142.2660  140.7380  160.3818 C.ar    1  UNL1        0.1449
     18 N         142.1340  141.7090  159.2462 N.pl3   1  UNL1       -0.3415
     19 H         144.4392  137.0684  160.3041 H       1  UNL1        0.1438
     20 H         144.0867  136.6181  161.9106 H       1  UNL1        0.1438
     21 H         141.6082  142.5332  159.3618 H       1  UNL1        0.1438
     22 H         142.5731  141.5220  158.3851 H       1  UNL1        0.1438
     23 C         143.0046  138.4354  157.8286 C.2     1  UNL1        0.4056
     24 O         141.6040  137.9585  158.0754 O.2     1  UNL1       -0.2261
     25 N         143.7361  139.1972  158.8937 N.am    1  UNL1       -0.2452
     26 H         144.6554  139.5102  158.7318 H       1  UNL1        0.1584
     27 C         143.6121  136.7726  155.9270 C.3     1  UNL1        0.2574
     28 O         143.6738  138.1504  156.5167 O.3     1  UNL1       -0.4304
     29 C         140.3248  142.4019  167.3448 C.3     1  UNL1        0.0785
     30 C         141.0729  142.1510  168.6206 C.ar    1  UNL1        0.0410
     31 C         140.3406  141.6654  169.8363 C.ar    1  UNL1        0.1388
     32 F         138.8603  141.4305  169.7761 F       1  UNL1       -0.2044
     33 C         141.0885  141.4146  171.1121 C.ar    1  UNL1        0.0318
     34 C         142.5688  141.6495  171.1722 C.ar    1  UNL1        0.0342
     35 C         143.3011  142.1351  169.9565 C.ar    1  UNL1        0.1672
     36 F         144.7814  142.3700  170.0165 F       1  UNL1       -0.2018
     37 C         142.5532  142.3859  168.6807 C.ar    1  UNL1        0.1659
     38 F         143.2854  142.8716  167.4650 F       1  UNL1       -0.2020
@<TRIPOS>BOND
     1    27    28    1
     2    28    23    1
     3    23    24    2
     4    23    25   am
     5    25    11    1
     6    11    12   ar
     7    12    13    1
     8    12    14   ar
     9    14    15   ar
    10    15     1    1
    11     1     2   ar
    12     2     3   ar
    13     3    29    1
    14    29    30    1
    15    30    31   ar
    16    31    32    1
    17    31    33   ar
    18    33    34   ar
    19    34    35   ar
    20    35    36    1
    21    35    37   ar
    22    37    38    1
    23     3     4   ar
    24     4     5   ar
    25     5     6   ar
    26     6     7    1
    27     6     8   ar
    28     8     9   ar
    29     9    10   ar
    30    15    16   ar
    31    16    17   ar
    32    17    18    1
    33    17    11   ar
    34    10     1   ar
    35    37    30   ar
    36    10     4   ar
    37    25    26    1
    38    13    19    1
    39    13    20    1
    40    18    21    1
    41    18    22    1
@<TRIPOS>MOLECULE
*****
 38 41 0 0 0
SMALL
GASTEIGER

@<TRIPOS>ATOM
      1 N         141.2037  142.8707  163.9364 N.ar    1  UNL1       -0.1967
      2 N         142.2781  142.9732  164.9781 N.ar    1  UNL1       -0.1666
      3 C         141.9371  142.0264  166.0904 C.ar    1  UNL1        0.0850
      4 C         140.6519  141.3388  165.7361 C.ar    1  UNL1        0.0342
      5 C         139.8358  140.3049  166.4538 C.ar    1  UNL1        0.0141
      6 C         138.5665  139.7928  165.8402 C.ar    1  UNL1        0.0578
      7 CL        137.7503  138.7589  166.5578 Cl      1  UNL1       -0.0822
      8 C         138.1133  140.3146  164.5089 C.ar    1  UNL1        0.0129
      9 C         138.9293  141.3485  163.7913 C.ar    1  UNL1        0.0202
     10 C         140.1986  141.8606  164.4049 C.ar    1  UNL1        0.0871
     11 C         141.0266  145.1871  160.0824 C.ar    1  UNL1        0.1161
     12 C         142.0174  144.0724  160.2426 C.ar    1  UNL1        0.1449
     13 N         142.9492  143.7298  159.1182 N.pl3   1  UNL1       -0.3415
     14 N         142.0764  143.3003  161.5273 N.ar    1  UNL1       -0.1941
     15 C         141.1447  143.6428  162.6517 C.ar    1  UNL1        0.2554
     16 N         140.1538  144.7576  162.4915 N.ar    1  UNL1       -0.1941
     17 C         140.0948  145.5297  161.2068 C.ar    1  UNL1        0.1449
     18 N         139.1039  146.6443  161.0466 N.pl3   1  UNL1       -0.3415
     19 H         142.9105  144.2365  158.2750 H       1  UNL1        0.1438
     20 H         143.5995  142.9981  159.2234 H       1  UNL1        0.1438
     21 H         138.4924  146.8691  161.7846 H       1  UNL1        0.1438
     22 H         139.0652  147.1511  160.2035 H       1  UNL1        0.1438
     23 C         140.2033  145.4124  157.6285 C.2     1  UNL1        0.4056
     24 O         139.4980  144.0936  157.7440 O.2     1  UNL1       -0.2261
     25 N         140.9676  145.9591  158.7977 N.am    1  UNL1       -0.2452
     26 H         141.4305  146.8247  158.7219 H       1  UNL1        0.1584
     27 C         139.1267  147.2727  156.1689 C.3     1  UNL1        0.2574
     28 O         140.1443  146.1846  156.3438 O.3     1  UNL1       -0.4304
     29 C         142.7402  141.8059  167.3380 C.3     1  UNL1        0.0785
     30 C         142.0661  141.3247  168.5887 C.ar    1  UNL1        0.0410
     31 C         142.2314  139.9005  169.0293 C.ar    1  UNL1        0.1388
     32 F         143.0709  138.9575  168.2193 F       1  UNL1       -0.2044
     33 C         141.5574  139.4192  170.2799 C.ar    1  UNL1        0.0318
     34 C         140.7180  140.3623  171.0899 C.ar    1  UNL1        0.0342
     35 C         140.5526  141.7865  170.6492 C.ar    1  UNL1        0.1672
     36 F         139.7131  142.7296  171.4591 F       1  UNL1       -0.2018
     37 C         141.2266  142.2678  169.3986 C.ar    1  UNL1        0.1659
     38 F         141.0612  143.6920  168.9579 F       1  UNL1       -0.2020
@<TRIPOS>BOND
     1    27    28    1
     2    28    23    1
     3    23    24    2
     4    23    25   am
     5    25    11    1
     6    11    12   ar
     7    12    13    1
     8    12    14   ar
     9    14    15   ar
    10    15     1    1
    11     1     2   ar
    12     2     3   ar
    13     3    29    1
    14    29    30    1
    15    30    31   ar
    16    31    32    1
    17    31    33   ar
    18    33    34   ar
    19    34    35   ar
    20    35    36    1
    21    35    37   ar
    22    37    38    1
    23     3     4   ar
    24     4     5   ar
    25     5     6   ar
    26     6     7    1
    27     6     8   ar
    28     8     9   ar
    29     9    10   ar
    30    15    16   ar
    31    16    17   ar
    32    17    18    1
    33    17    11   ar
    34    10     1   ar
    35    37    30   ar
    36    10     4   ar
    37    25    26    1
    38    13    19    1
    39    13    20    1
    40    18    21    1
    41    18    22    1
@<TRIPOS>MOLECULE
*****
 38 41 0 0 0
SMALL
GASTEIGER

@<TRIPOS>ATOM
      1 N         141.0633  140.3422  164.1379 N.ar    1  UNL1       -0.1967
      2 N         141.2923  141.5473  165.0011 N.ar    1  UNL1       -0.1666
      3 C         140.4184  141.4217  166.2137 C.ar    1  UNL1        0.0850
      4 C         139.6493  140.1389  166.0999 C.ar    1  UNL1        0.0342
      5 C         138.6375  139.4921  166.9988 C.ar    1  UNL1        0.0141
      6 C         138.0243  138.1782  166.6146 C.ar    1  UNL1        0.0578
      7 CL        137.0125  137.5314  167.5135 Cl      1  UNL1       -0.0822
      8 C         138.4229  137.5111  165.3317 C.ar    1  UNL1        0.0129
      9 C         139.4347  138.1578  164.4328 C.ar    1  UNL1        0.0202
     10 C         140.0479  139.4717  164.8170 C.ar    1  UNL1        0.0871
     11 C         143.0703  139.4880  160.2018 C.ar    1  UNL1        0.1161
     12 C         142.2727  140.7458  160.3796 C.ar    1  UNL1        0.1449
     13 N         142.1441  141.7189  159.2454 N.pl3   1  UNL1       -0.3415
     14 N         141.6037  141.0305  161.6916 N.ar    1  UNL1       -0.1941
     15 C         141.7323  140.0575  162.8259 C.ar    1  UNL1        0.2554
     16 N         142.5300  138.7996  162.6481 N.ar    1  UNL1       -0.1941
     17 C         143.1990  138.5149  161.3360 C.ar    1  UNL1        0.1449
     18 N         143.9965  137.2570  161.1583 N.pl3   1  UNL1       -0.3415
     19 H         142.5832  141.5321  158.3843 H       1  UNL1        0.1438
     20 H         141.6206  142.5445  159.3621 H       1  UNL1        0.1438
     21 H         144.0809  136.6183  161.9028 H       1  UNL1        0.1438
     22 H         144.4356  137.0701  160.2972 H       1  UNL1        0.1438
     23 C         143.0032  138.4526  157.8199 C.2     1  UNL1        0.4056
     24 O         141.5982  137.9867  158.0620 O.2     1  UNL1       -0.2261
     25 N         143.7393  139.2033  158.8898 N.am    1  UNL1       -0.2452
     26 H         144.6616  139.5091  158.7309 H       1  UNL1        0.1584
     27 C         142.9395  138.4164  155.2229 C.3     1  UNL1        0.2574
     28 O         143.6723  138.1680  156.5079 O.3     1  UNL1       -0.4304
     29 C         140.3292  142.4060  167.3421 C.3     1  UNL1        0.0785
     30 C         141.0768  142.1540  168.6180 C.ar    1  UNL1        0.0410
     31 C         140.3440  141.6671  169.8329 C.ar    1  UNL1        0.1388
     32 F         138.8638  141.4320  169.7719 F       1  UNL1       -0.2044
     33 C         141.0915  141.4151  171.1088 C.ar    1  UNL1        0.0318
     34 C         142.5717  141.6502  171.1697 C.ar    1  UNL1        0.0342
     35 C         143.3044  142.1372  169.9548 C.ar    1  UNL1        0.1672
     36 F         144.7846  142.3722  170.0157 F       1  UNL1       -0.2018
     37 C         142.5570  142.3891  168.6789 C.ar    1  UNL1        0.1659
     38 F         143.2897  142.8761  167.4641 F       1  UNL1       -0.2020
@<TRIPOS>BOND
     1    27    28    1
     2    28    23    1
     3    23    24    2
     4    23    25   am
     5    25    11    1
     6    11    12   ar
     7    12    13    1
     8    12    14   ar
     9    14    15   ar
    10    15     1    1
    11     1     2   ar
    12     2     3   ar
    13     3    29    1
    14    29    30    1
    15    30    31   ar
    16    31    32    1
    17    31    33   ar
    18    33    34   ar
    19    34    35   ar
    20    35    36    1
    21    35    37   ar
    22    37    38    1
    23     3     4   ar
    24     4     5   ar
    25     5     6   ar
    26     6     7    1
    27     6     8   ar
    28     8     9   ar
    29     9    10   ar
    30    15    16   ar
    31    16    17   ar
    32    17    18    1
    33    17    11   ar
    34    10     1   ar
    35    37    30   ar
    36    10     4   ar
    37    25    26    1
    38    13    19    1
    39    13    20    1
    40    18    21    1
    41    18    22    1
@<TRIPOS>MOLECULE
*****
 38 41 0 0 0
SMALL
GASTEIGER

@<TRIPOS>ATOM
      1 N         140.2276  142.6118  164.4363 N.ar    1  UNL1       -0.1967
      2 N         140.3705  143.0884  165.8513 N.ar    1  UNL1       -0.1666
      3 C         139.9540  141.9709  166.7611 C.ar    1  UNL1        0.0850
      4 C         139.5536  140.8036  165.9083 C.ar    1  UNL1        0.0342
      5 C         139.0570  139.4313  166.2544 C.ar    1  UNL1        0.0141
      6 C         138.7294  138.4550  165.1638 C.ar    1  UNL1        0.0578
      7 CL        138.2327  137.0826  165.5099 Cl      1  UNL1       -0.0822
      8 C         138.8985  138.8512  163.7269 C.ar    1  UNL1        0.0129
      9 C         139.3951  140.2235  163.3808 C.ar    1  UNL1        0.0202
     10 C         139.7227  141.1998  164.4714 C.ar    1  UNL1        0.0871
     11 C         141.1513  144.9990  160.7351 C.ar    1  UNL1        0.1161
     12 C         139.9833  145.3749  161.5980 C.ar    1  UNL1        0.1449
     13 N         139.1232  146.5465  161.2272 N.pl3   1  UNL1       -0.3415
     14 N         139.6755  144.5792  162.8317 N.ar    1  UNL1       -0.1941
     15 C         140.5355  143.4076  163.2026 C.ar    1  UNL1        0.2554
     16 N         141.7035  143.0317  162.3397 N.ar    1  UNL1       -0.1941
     17 C         142.0114  143.8274  161.1060 C.ar    1  UNL1        0.1449
     18 N         143.1793  143.4515  160.2431 N.pl3   1  UNL1       -0.3415
     19 H         139.3253  147.0688  160.4175 H       1  UNL1        0.1438
     20 H         138.3567  146.7932  161.7935 H       1  UNL1        0.1438
     21 H         143.7438  142.6825  160.4866 H       1  UNL1        0.1438
     22 H         143.3814  143.9737  159.4334 H       1  UNL1        0.1438
     23 C         140.8071  145.4400  158.1980 C.2     1  UNL1        0.4056
     24 O         139.8472  144.2895  158.1283 O.2     1  UNL1       -0.2261
     25 N         141.4591  145.7948  159.5014 N.am    1  UNL1       -0.2452
     26 H         142.0892  146.5499  159.5472 H       1  UNL1        0.1584
     27 C         140.0151  146.5956  156.0100 C.3     1  UNL1        0.2574
     28 O         141.1150  146.2359  156.9643 O.3     1  UNL1       -0.4304
     29 C         139.9403  142.0131  168.2604 C.3     1  UNL1        0.0785
     30 C         141.2282  141.9294  169.0250 C.ar    1  UNL1        0.0410
     31 C         142.0135  140.6515  169.0336 C.ar    1  UNL1        0.1388
     32 F         141.5109  139.4572  168.2778 F       1  UNL1       -0.2044
     33 C         143.3013  140.5677  169.7981 C.ar    1  UNL1        0.0318
     34 C         143.8038  141.7619  170.5539 C.ar    1  UNL1        0.0342
     35 C         143.0185  143.0399  170.5452 C.ar    1  UNL1        0.1672
     36 F         143.5210  144.2341  171.3011 F       1  UNL1       -0.2018
     37 C         141.7307  143.1237  169.7808 C.ar    1  UNL1        0.1659
     38 F         140.9453  144.4016  169.7721 F       1  UNL1       -0.2020
@<TRIPOS>BOND
     1    27    28    1
     2    28    23    1
     3    23    24    2
     4    23    25   am
     5    25    11    1
     6    11    12   ar
     7    12    13    1
     8    12    14   ar
     9    14    15   ar
    10    15     1    1
    11     1     2   ar
    12     2     3   ar
    13     3    29    1
    14    29    30    1
    15    30    31   ar
    16    31    32    1
    17    31    33   ar
    18    33    34   ar
    19    34    35   ar
    20    35    36    1
    21    35    37   ar
    22    37    38    1
    23     3     4   ar
    24     4     5   ar
    25     5     6   ar
    26     6     7    1
    27     6     8   ar
    28     8     9   ar
    29     9    10   ar
    30    15    16   ar
    31    16    17   ar
    32    17    18    1
    33    17    11   ar
    34    10     1   ar
    35    37    30   ar
    36    10     4   ar
    37    25    26    1
    38    13    19    1
    39    13    20    1
    40    18    21    1
    41    18    22    1
@<TRIPOS>MOLECULE
*****
 38 41 0 0 0
SMALL
GASTEIGER

@<TRIPOS>ATOM
      1 N         141.1978  140.4795  163.7818 N.ar    1  UNL1       -0.1967
      2 N         141.4475  141.6495  164.6866 N.ar    1  UNL1       -0.1666
      3 C         140.6072  141.4720  165.9164 C.ar    1  UNL1        0.0850
      4 C         139.8382  140.1923  165.7716 C.ar    1  UNL1        0.0342
      5 C         138.8527  139.5064  166.6707 C.ar    1  UNL1        0.0141
      6 C         138.2323  138.2070  166.2505 C.ar    1  UNL1        0.0578
      7 CL        137.2467  137.5211  167.1495 Cl      1  UNL1       -0.0822
      8 C         138.5973  137.5936  164.9312 C.ar    1  UNL1        0.0129
      9 C         139.5827  138.2795  164.0322 C.ar    1  UNL1        0.0202
     10 C         140.2032  139.5789  164.4524 C.ar    1  UNL1        0.0871
     11 C         143.0988  139.7917  159.7614 C.ar    1  UNL1        0.1161
     12 C         141.9652  140.7643  159.8985 C.ar    1  UNL1        0.1449
     13 N         141.4652  141.5077  158.6954 N.pl3   1  UNL1       -0.3415
     14 N         141.3316  140.9936  161.2386 N.ar    1  UNL1       -0.1941
     15 C         141.8315  140.2502  162.4417 C.ar    1  UNL1        0.2554
     16 N         142.9652  139.2775  162.3046 N.ar    1  UNL1       -0.1941
     17 C         143.5988  139.0483  160.9645 C.ar    1  UNL1        0.1449
     18 N         144.7324  138.0756  160.8275 N.pl3   1  UNL1       -0.3415
     19 H         141.8811  141.3573  157.8159 H       1  UNL1        0.1438
     20 H         140.7212  142.1461  158.7854 H       1  UNL1        0.1438
     21 H         145.0605  137.5877  161.6171 H       1  UNL1        0.1438
     22 H         145.1483  137.9251  159.9479 H       1  UNL1        0.1438
     23 C         143.1803  138.5156  157.4998 C.2     1  UNL1        0.4056
     24 O         141.9944  137.6980  157.9184 O.2     1  UNL1       -0.2261
     25 N         143.7325  139.5624  158.4213 N.am    1  UNL1       -0.2452
     26 H         144.5108  140.0991  158.1465 H       1  UNL1        0.1584
     27 C         144.6541  139.3601  155.5339 C.3     1  UNL1        0.2574
     28 O         143.8140  138.2864  156.1596 O.3     1  UNL1       -0.4304
     29 C         140.5466  142.4096  167.0857 C.3     1  UNL1        0.0785
     30 C         141.3015  142.0913  168.3422 C.ar    1  UNL1        0.0410
     31 C         142.7841  142.3110  168.4025 C.ar    1  UNL1        0.1388
     32 F         143.5118  142.8490  167.2063 F       1  UNL1       -0.2044
     33 C         143.5390  141.9927  169.6590 C.ar    1  UNL1        0.0318
     34 C         142.8113  141.4547  170.8552 C.ar    1  UNL1        0.0342
     35 C         141.3287  141.2350  170.7949 C.ar    1  UNL1        0.1672
     36 F         140.6009  140.6969  171.9911 F       1  UNL1       -0.2018
     37 C         140.5738  141.5533  169.5385 C.ar    1  UNL1        0.1659
     38 F         139.0912  141.3336  169.4782 F       1  UNL1       -0.2020
@<TRIPOS>BOND
     1    27    28    1
     2    28    23    1
     3    23    24    2
     4    23    25   am
     5    25    11    1
     6    11    12   ar
     7    12    13    1
     8    12    14   ar
     9    14    15   ar
    10    15     1    1
    11     1     2   ar
    12     2     3   ar
    13     3    29    1
    14    29    30    1
    15    30    31   ar
    16    31    32    1
    17    31    33   ar
    18    33    34   ar
    19    34    35   ar
    20    35    36    1
    21    35    37   ar
    22    37    38    1
    23     3     4   ar
    24     4     5   ar
    25     5     6   ar
    26     6     7    1
    27     6     8   ar
    28     8     9   ar
    29     9    10   ar
    30    15    16   ar
    31    16    17   ar
    32    17    18    1
    33    17    11   ar
    34    10     1   ar
    35    37    30   ar
    36    10     4   ar
    37    25    26    1
    38    13    19    1
    39    13    20    1
    40    18    21    1
    41    18    22    1
@<TRIPOS>MOLECULE
*****
 38 41 0 0 0
SMALL
GASTEIGER

@<TRIPOS>ATOM
      1 N         142.2524  142.3162  162.9100 N.ar    1  UNL1       -0.1967
      2 N         142.9307  141.6430  164.0661 N.ar    1  UNL1       -0.1666
      3 C         142.2098  142.0386  165.3207 C.ar    1  UNL1        0.0850
      4 C         141.0860  142.9562  164.9398 C.ar    1  UNL1        0.0342
      5 C         140.0421  143.6578  165.7572 C.ar    1  UNL1        0.0141
      6 C         139.0246  144.5309  165.0846 C.ar    1  UNL1        0.0578
      7 CL        137.9807  145.2324  165.9020 Cl      1  UNL1       -0.0822
      8 C         139.0510  144.7024  163.5947 C.ar    1  UNL1        0.0129
      9 C         140.0949  144.0009  162.7773 C.ar    1  UNL1        0.0202
     10 C         141.1124  143.1278  163.4499 C.ar    1  UNL1        0.0871
     11 C         143.4309  141.9631  158.5813 C.ar    1  UNL1        0.1161
     12 C         143.4839  140.7586  159.4738 C.ar    1  UNL1        0.1449
     13 N         143.9296  139.4364  158.9233 N.pl3   1  UNL1       -0.3415
     14 N         143.0910  140.8763  160.9166 N.ar    1  UNL1       -0.1941
     15 C         142.6453  142.1985  161.4671 C.ar    1  UNL1        0.2554
     16 N         142.5924  143.4030  160.5747 N.ar    1  UNL1       -0.1941
     17 C         142.9852  143.2853  159.1318 C.ar    1  UNL1        0.1449
     18 N         142.9322  144.4898  158.2395 N.pl3   1  UNL1       -0.3415
     19 H         144.1874  139.3591  157.9763 H       1  UNL1        0.1438
     20 H         143.9643  138.6458  159.5090 H       1  UNL1        0.1438
     21 H         142.6397  145.3576  158.6008 H       1  UNL1        0.1438
     22 H         143.1901  144.4126  157.2925 H       1  UNL1        0.1438
     23 C         145.2195  142.1902  156.7106 C.2     1  UNL1        0.4056
     24 O         146.2223  142.6528  157.7256 O.2     1  UNL1       -0.2261
     25 N         143.8238  141.8453  157.1385 N.am    1  UNL1       -0.2452
     26 H         143.1656  141.5417  156.4723 H       1  UNL1        0.1584
     27 C         147.0352  142.3084  154.8562 C.3     1  UNL1        0.2574
     28 O         145.6122  142.0724  155.2677 O.3     1  UNL1       -0.4304
     29 C         142.5524  141.5945  166.7118 C.3     1  UNL1        0.0785
     30 C         141.4590  141.2763  167.6883 C.ar    1  UNL1        0.0410
     31 C         140.4746  140.1865  167.3830 C.ar    1  UNL1        0.1388
     32 F         140.5835  139.4150  166.1012 F       1  UNL1       -0.2044
     33 C         139.3812  139.8683  168.3593 C.ar    1  UNL1        0.0318
     34 C         139.2724  140.6399  169.6410 C.ar    1  UNL1        0.0342
     35 C         140.2569  141.7297  169.9463 C.ar    1  UNL1        0.1672
     36 F         140.1480  142.5013  171.2281 F       1  UNL1       -0.2018
     37 C         141.3502  142.0479  168.9700 C.ar    1  UNL1        0.1659
     38 F         142.3347  143.1376  169.2753 F       1  UNL1       -0.2020
@<TRIPOS>BOND
     1    27    28    1
     2    28    23    1
     3    23    24    2
     4    23    25   am
     5    25    11    1
     6    11    12   ar
     7    12    13    1
     8    12    14   ar
     9    14    15   ar
    10    15     1    1
    11     1     2   ar
    12     2     3   ar
    13     3    29    1
    14    29    30    1
    15    30    31   ar
    16    31    32    1
    17    31    33   ar
    18    33    34   ar
    19    34    35   ar
    20    35    36    1
    21    35    37   ar
    22    37    38    1
    23     3     4   ar
    24     4     5   ar
    25     5     6   ar
    26     6     7    1
    27     6     8   ar
    28     8     9   ar
    29     9    10   ar
    30    15    16   ar
    31    16    17   ar
    32    17    18    1
    33    17    11   ar
    34    10     1   ar
    35    37    30   ar
    36    10     4   ar
    37    25    26    1
    38    13    19    1
    39    13    20    1
    40    18    21    1
    41    18    22    1
@<TRIPOS>MOLECULE
*****
 38 41 0 0 0
SMALL
GASTEIGER

@<TRIPOS>ATOM
      1 N         142.4113  142.3510  162.5558 N.ar    1  UNL1       -0.1967
      2 N         143.0809  141.5844  163.6576 N.ar    1  UNL1       -0.1666
      3 C         142.3889  141.9232  164.9447 C.ar    1  UNL1        0.0850
      4 C         141.2918  142.8991  164.6382 C.ar    1  UNL1        0.0342
      5 C         140.2820  143.5812  165.5129 C.ar    1  UNL1        0.0141
      6 C         139.2860  144.5276  164.9110 C.ar    1  UNL1        0.0578
      7 CL        138.2761  145.2097  165.7857 Cl      1  UNL1       -0.0822
      8 C         139.2999  144.7920  163.4346 C.ar    1  UNL1        0.0129
      9 C         140.3097  144.1100  162.5600 C.ar    1  UNL1        0.0202
     10 C         141.3057  143.1635  163.1618 C.ar    1  UNL1        0.0871
     11 C         143.5244  142.2338  158.1971 C.ar    1  UNL1        0.1161
     12 C         143.6299  140.9920  159.0318 C.ar    1  UNL1        0.1449
     13 N         144.1065  139.7111  158.4136 N.pl3   1  UNL1       -0.3415
     14 N         143.2589  141.0311  160.4847 N.ar    1  UNL1       -0.1941
     15 C         142.7824  142.3119  161.1029 C.ar    1  UNL1        0.2554
     16 N         142.6768  143.5538  160.2682 N.ar    1  UNL1       -0.1941
     17 C         143.0478  143.5147  158.8153 C.ar    1  UNL1        0.1449
     18 N         142.9422  144.7566  157.9807 N.pl3   1  UNL1       -0.3415
     19 H         144.3500  139.6855  157.4601 H       1  UNL1        0.1438
     20 H         144.1758  138.8961  158.9615 H       1  UNL1        0.1438
     21 H         142.6294  145.5973  158.3865 H       1  UNL1        0.1438
     22 H         143.1857  144.7310  157.0271 H       1  UNL1        0.1438
     23 C         145.3292  142.3495  156.3319 C.2     1  UNL1        0.4056
     24 O         146.3921  142.5434  157.3724 O.2     1  UNL1       -0.2261
     25 N         143.8954  142.1947  156.7442 N.am    1  UNL1       -0.2452
     26 H         143.1978  142.0675  156.0613 H       1  UNL1        0.1584
     27 C         146.6993  143.2873  154.3335 C.3     1  UNL1        0.2574
     28 O         145.7002  142.3104  154.8790 O.3     1  UNL1       -0.4304
     29 C         142.7336  141.3813  166.3002 C.3     1  UNL1        0.0785
     30 C         141.6499  141.1376  167.3083 C.ar    1  UNL1        0.0410
     31 C         141.6685  141.8648  168.6201 C.ar    1  UNL1        0.1388
     32 F         142.7709  142.8356  168.9238 F       1  UNL1       -0.2044
     33 C         140.5849  141.6212  169.6282 C.ar    1  UNL1        0.0318
     34 C         139.4825  140.6503  169.3245 C.ar    1  UNL1        0.0342
     35 C         139.4638  139.9231  168.0127 C.ar    1  UNL1        0.1672
     36 F         138.3615  138.9523  167.7089 F       1  UNL1       -0.2018
     37 C         140.5475  140.1667  167.0046 C.ar    1  UNL1        0.1659
     38 F         140.5288  139.4396  165.6928 F       1  UNL1       -0.2020
@<TRIPOS>BOND
     1    27    28    1
     2    28    23    1
     3    23    24    2
     4    23    25   am
     5    25    11    1
     6    11    12   ar
     7    12    13    1
     8    12    14   ar
     9    14    15   ar
    10    15     1    1
    11     1     2   ar
    12     2     3   ar
    13     3    29    1
    14    29    30    1
    15    30    31   ar
    16    31    32    1
    17    31    33   ar
    18    33    34   ar
    19    34    35   ar
    20    35    36    1
    21    35    37   ar
    22    37    38    1
    23     3     4   ar
    24     4     5   ar
    25     5     6   ar
    26     6     7    1
    27     6     8   ar
    28     8     9   ar
    29     9    10   ar
    30    15    16   ar
    31    16    17   ar
    32    17    18    1
    33    17    11   ar
    34    10     1   ar
    35    37    30   ar
    36    10     4   ar
    37    25    26    1
    38    13    19    1
    39    13    20    1
    40    18    21    1
    41    18    22    1
@<TRIPOS>MOLECULE
*****
 38 41 0 0 0
SMALL
GASTEIGER

@<TRIPOS>ATOM
      1 N         142.7069  139.5668  158.7480 N.ar    1  UNL1       -0.1967
      2 N         142.5745  141.0435  158.5203 N.ar    1  UNL1       -0.1666
      3 C         143.0092  141.7463  159.7722 C.ar    1  UNL1        0.0850
      4 C         143.4102  140.7039  160.7735 C.ar    1  UNL1        0.0342
      5 C         143.9214  140.8074  162.1799 C.ar    1  UNL1        0.0141
      6 C         144.2457  139.5638  162.9533 C.ar    1  UNL1        0.0578
      7 CL        144.7569  139.6671  164.3598 Cl      1  UNL1       -0.0822
      8 C         144.0589  138.2167  162.3203 C.ar    1  UNL1        0.0129
      9 C         143.5478  138.1133  160.9139 C.ar    1  UNL1        0.0202
     10 C         143.2234  139.3569  160.1405 C.ar    1  UNL1        0.0871
     11 C         141.7269  136.3337  155.7752 C.ar    1  UNL1        0.1161
     12 C         140.6230  137.0534  156.4918 C.ar    1  UNL1        0.1449
     13 N         139.1925  136.6954  156.2175 N.pl3   1  UNL1       -0.3415
     14 N         140.9497  138.1311  157.4827 N.ar    1  UNL1       -0.1941
     15 C         142.3802  138.4891  157.7571 C.ar    1  UNL1        0.2554
     16 N         143.4842  137.7694  157.0405 N.ar    1  UNL1       -0.1941
     17 C         143.1575  136.6917  156.0496 C.ar    1  UNL1        0.1449
     18 N         144.2614  135.9721  155.3330 N.pl3   1  UNL1       -0.3415
     19 H         138.9781  135.9881  155.5671 H       1  UNL1        0.1438
     20 H         138.4679  137.1678  156.6878 H       1  UNL1        0.1438
     21 H         145.2003  136.2071  155.5131 H       1  UNL1        0.1438
     22 H         144.0471  135.2648  154.6827 H       1  UNL1        0.1438
     23 C         141.5781  133.8144  155.1583 C.2     1  UNL1        0.4056
     24 O         142.0826  133.4503  156.5232 O.2     1  UNL1       -0.2261
     25 N         141.4002  135.2561  154.7843 N.am    1  UNL1       -0.2452
     26 H         141.0690  135.4950  153.8885 H       1  UNL1        0.1584
     27 C         140.6700  131.4365  154.6378 C.3     1  UNL1        0.2574
     28 O         141.2513  132.7367  154.1673 O.3     1  UNL1       -0.4304
     29 C         143.0378  143.2308  159.9853 C.3     1  UNL1        0.0785
     30 C         142.4595  143.8200  161.2378 C.ar    1  UNL1        0.0410
     31 C         140.9719  143.9215  161.4014 C.ar    1  UNL1        0.1388
     32 F         140.0626  143.4339  160.3126 F       1  UNL1       -0.2044
     33 C         140.3936  144.5106  162.6538 C.ar    1  UNL1        0.0318
     34 C         141.3030  144.9982  163.7425 C.ar    1  UNL1        0.0342
     35 C         142.7905  144.8967  163.5789 C.ar    1  UNL1        0.1672
     36 F         143.6999  145.3843  164.6676 F       1  UNL1       -0.2018
     37 C         143.3688  144.3076  162.3265 C.ar    1  UNL1        0.1659
     38 F         144.8564  144.2060  162.1628 F       1  UNL1       -0.2020
@<TRIPOS>BOND
     1    27    28    1
     2    28    23    1
     3    23    24    2
     4    23    25   am
     5    25    11    1
     6    11    12   ar
     7    12    13    1
     8    12    14   ar
     9    14    15   ar
    10    15     1    1
    11     1     2   ar
    12     2     3   ar
    13     3    29    1
    14    29    30    1
    15    30    31   ar
    16    31    32    1
    17    31    33   ar
    18    33    34   ar
    19    34    35   ar
    20    35    36    1
    21    35    37   ar
    22    37    38    1
    23     3     4   ar
    24     4     5   ar
    25     5     6   ar
    26     6     7    1
    27     6     8   ar
    28     8     9   ar
    29     9    10   ar
    30    15    16   ar
    31    16    17   ar
    32    17    18    1
    33    17    11   ar
    34    10     1   ar
    35    37    30   ar
    36    10     4   ar
    37    25    26    1
    38    13    19    1
    39    13    20    1
    40    18    21    1
    41    18    22    1
@<TRIPOS>MOLECULE
*****
 38 41 0 0 0
SMALL
GASTEIGER

@<TRIPOS>ATOM
      1 N         141.0478  141.8880  162.8989 N.ar    1  UNL1       -0.1967
      2 N         142.1319  142.1670  163.8974 N.ar    1  UNL1       -0.1666
      3 C         142.0284  141.1459  164.9913 C.ar    1  UNL1        0.0850
      4 C         140.8804  140.2358  164.6689 C.ar    1  UNL1        0.0342
      5 C         140.3086  139.0488  165.3858 C.ar    1  UNL1        0.0141
      6 C         139.1308  138.3204  164.8095 C.ar    1  UNL1        0.0578
      7 CL        138.5590  137.1333  165.5264 Cl      1  UNL1       -0.0822
      8 C         138.5247  138.7791  163.5163 C.ar    1  UNL1        0.0129
      9 C         139.0965  139.9661  162.7995 C.ar    1  UNL1        0.0202
     10 C         140.2743  140.6945  163.3757 C.ar    1  UNL1        0.0871
     11 C         140.2550  144.2218  159.1339 C.ar    1  UNL1        0.1161
     12 C         140.0604  144.8695  160.4728 C.ar    1  UNL1        0.1449
     13 N         139.6016  146.2951  160.5567 N.pl3   1  UNL1       -0.3415
     14 N         140.3247  144.0915  161.7278 N.ar    1  UNL1       -0.1941
     15 C         140.7835  142.6659  161.6439 C.ar    1  UNL1        0.2554
     16 N         140.9781  142.0182  160.3050 N.ar    1  UNL1       -0.1941
     17 C         140.7139  142.7962  159.0500 C.ar    1  UNL1        0.1449
     18 N         140.9085  142.1484  157.7112 N.pl3   1  UNL1       -0.3415
     19 H         139.4281  146.8057  159.7330 H       1  UNL1        0.1438
     20 H         139.4739  146.7202  161.4355 H       1  UNL1        0.1438
     21 H         141.2096  141.2127  157.6562 H       1  UNL1        0.1438
     22 H         140.7350  142.6590  156.8875 H       1  UNL1        0.1438
     23 C         141.0547  145.8919  157.3115 C.2     1  UNL1        0.4056
     24 O         142.3830  146.0061  157.9990 O.2     1  UNL1       -0.2261
     25 N         139.9907  144.9997  157.8789 N.am    1  UNL1       -0.2452
     26 H         139.1190  144.9248  157.4277 H       1  UNL1        0.1584
     27 C         139.9168  146.0892  154.9842 C.3     1  UNL1        0.2574
     28 O         140.7903  146.6698  156.0565 O.3     1  UNL1       -0.4304
     29 C         142.9170  141.0513  166.1961 C.3     1  UNL1        0.0785
     30 C         142.3271  140.7453  167.5409 C.ar    1  UNL1        0.0410
     31 C         141.3648  141.7061  168.1741 C.ar    1  UNL1        0.1388
     32 F         140.9925  142.9729  167.4625 F       1  UNL1       -0.2044
     33 C         140.7750  141.4001  169.5188 C.ar    1  UNL1        0.0318
     34 C         141.1474  140.1332  170.2304 C.ar    1  UNL1        0.0342
     35 C         142.1096  139.1724  169.5972 C.ar    1  UNL1        0.1672
     36 F         142.4820  137.9055  170.3088 F       1  UNL1       -0.2018
     37 C         142.6995  139.4784  168.2525 C.ar    1  UNL1        0.1659
     38 F         143.6617  138.5176  167.6193 F       1  UNL1       -0.2020
@<TRIPOS>BOND
     1    27    28    1
     2    28    23    1
     3    23    24    2
     4    23    25   am
     5    25    11    1
     6    11    12   ar
     7    12    13    1
     8    12    14   ar
     9    14    15   ar
    10    15     1    1
    11     1     2   ar
    12     2     3   ar
    13     3    29    1
    14    29    30    1
    15    30    31   ar
    16    31    32    1
    17    31    33   ar
    18    33    34   ar
    19    34    35   ar
    20    35    36    1
    21    35    37   ar
    22    37    38    1
    23     3     4   ar
    24     4     5   ar
    25     5     6   ar
    26     6     7    1
    27     6     8   ar
    28     8     9   ar
    29     9    10   ar
    30    15    16   ar
    31    16    17   ar
    32    17    18    1
    33    17    11   ar
    34    10     1   ar
    35    37    30   ar
    36    10     4   ar
    37    25    26    1
    38    13    19    1
    39    13    20    1
    40    18    21    1
    41    18    22    1
