@<TRIPOS>MOLECULE
*****
 30 34 0 0 0
SMALL
GASTEIGER

@<TRIPOS>ATOM
      1 C         138.8939  143.1866  162.1808 C.ar    1  UNL1        0.2207
      2 N         138.9650  144.6403  161.8176 N.ar    1  UNL1       -0.2120
      3 C         139.8928  145.5547  162.5612 C.ar    1  UNL1        0.1034
      4 C         140.7497  145.0154  163.6681 C.ar    1  UNL1        0.0405
      5 C         140.6786  143.5617  164.0312 C.ar    1  UNL1        0.0929
      6 N         139.7507  142.6474  163.2876 N.ar    1  UNL1       -0.2130
      7 C         141.5354  143.0224  165.1381 C.ar    1  UNL1        0.0618
      8 S         141.0670  142.6473  166.5128 S.2     1  UNL1       -0.0696
      9 C         142.2532  142.1566  167.2888 C.ar    1  UNL1        0.0876
     10 N         143.4547  142.2284  166.3937 N.ar    1  UNL1       -0.2470
     11 C         143.0111  142.7636  165.0644 C.ar    1  UNL1        0.0662
     12 C         142.2401  141.6781  168.7103 C.3     1  UNL1        0.0493
     13 C         141.7359  142.5774  169.7998 C.3     1  UNL1        0.0236
     14 C         141.7229  142.0989  171.2214 C.3     1  UNL1        0.0690
     15 N         142.2140  140.7210  171.5534 N.3     1  UNL1       -0.2974
     16 C         142.7182  139.8217  170.4639 C.3     1  UNL1        0.0690
     17 C         142.7313  140.3002  169.0425 C.3     1  UNL1        0.0236
     18 H         141.4397  140.2329  172.0034 H       1  UNL1        0.1232
     19 C         143.8890  142.9986  163.8710 C.3     1  UNL1        0.0409
     20 C         144.3327  143.8745  162.7371 C.3     1  UNL1        0.0063
     21 C         144.9659  142.5296  162.9382 C.3     1  UNL1        0.0063
     22 N         137.9660  142.2723  161.4371 N.pl3   1  UNL1       -0.2825
     23 H         137.1197  142.6195  161.0732 H       1  UNL1        0.1551
     24 C         140.4486  138.5674  158.7706 C.3     1  UNL1        0.0521
     25 C         139.5689  138.9764  159.9146 C.ar    1  UNL1        0.0606
     26 C         139.2073  140.4198  160.1039 C.ar    1  UNL1        0.0294
     27 C         138.3276  140.8288  161.2479 C.ar    1  UNL1        0.0532
     28 C         137.8096  139.7945  162.2028 C.ar    1  UNL1        0.0353
     29 C         138.1712  138.3511  162.0135 C.ar    1  UNL1        0.0997
     30 N         139.0509  137.9421  160.8695 N.ar    1  UNL1       -0.2481
@<TRIPOS>BOND
     1    24    25    1
     2    25    26   ar
     3    26    27   ar
     4    27    22    1
     5    22     1    1
     6     1     2   ar
     7     2     3   ar
     8     3     4   ar
     9     4     5   ar
    10     5     7    1
    11     7     8   ar
    12     8     9   ar
    13     9    12    1
    14    12    13    1
    15    13    14    1
    16    14    15    1
    17    15    16    1
    18    16    17    1
    19     9    10   ar
    20    10    11   ar
    21    11    19    1
    22    19    20    1
    23    20    21    1
    24     5     6   ar
    25    27    28   ar
    26    28    29   ar
    27    29    30   ar
    28    30    25   ar
    29     6     1   ar
    30    11     7   ar
    31    21    19    1
    32    17    12    1
    33    22    23    1
    34    15    18    1
@<TRIPOS>MOLECULE
*****
 30 34 0 0 0
SMALL
GASTEIGER

@<TRIPOS>ATOM
      1 C         142.3423  141.8905  165.7761 C.ar    1  UNL1        0.2207
      2 N         143.7052  142.4226  166.1072 N.ar    1  UNL1       -0.2120
      3 C         144.3164  143.4988  165.2597 C.ar    1  UNL1        0.1034
      4 C         143.5646  144.0430  164.0812 C.ar    1  UNL1        0.0405
      5 C         142.2018  143.5110  163.7502 C.ar    1  UNL1        0.0929
      6 N         141.5906  142.4347  164.5977 N.ar    1  UNL1       -0.2130
      7 C         141.4500  144.0552  162.5718 C.ar    1  UNL1        0.0618
      8 S         141.9932  144.2328  161.1849 S.2     1  UNL1       -0.0696
      9 C         140.9020  144.8047  160.3293 C.ar    1  UNL1        0.0876
     10 N         139.6842  144.9806  161.1874 N.ar    1  UNL1       -0.2470
     11 C         140.0229  144.5173  162.5734 C.ar    1  UNL1        0.0662
     12 C         141.0095  145.1415  158.8717 C.3     1  UNL1        0.0493
     13 C         139.9777  146.0184  158.2264 C.3     1  UNL1        0.0236
     14 C         140.0851  146.3553  156.7687 C.3     1  UNL1        0.0690
     15 N         141.2246  145.8153  155.9562 N.3     1  UNL1       -0.2974
     16 C         142.2565  144.9384  156.6015 C.3     1  UNL1        0.0690
     17 C         142.1489  144.6015  158.0591 C.3     1  UNL1        0.0236
     18 H         141.7203  146.6201  155.5728 H       1  UNL1        0.1232
     19 C         139.0971  144.5164  163.7536 C.3     1  UNL1        0.0409
     20 C         138.8256  144.8447  165.1918 C.3     1  UNL1        0.0063
     21 C         137.7652  144.1867  164.3594 C.3     1  UNL1        0.0063
     22 N         141.7312  140.8143  166.6236 N.pl3   1  UNL1       -0.2825
     23 H         141.8364  139.8688  166.3701 H       1  UNL1        0.1551
     24 C         140.3060  144.3430  170.1616 C.3     1  UNL1        0.0521
     25 C         140.2471  142.9430  169.6264 C.ar    1  UNL1        0.0606
     26 C         141.0186  142.5786  168.3927 C.ar    1  UNL1        0.0294
     27 C         140.9597  141.1786  167.8574 C.ar    1  UNL1        0.0532
     28 C         140.1293  140.1430  168.5558 C.ar    1  UNL1        0.0353
     29 C         139.3578  140.5073  169.7895 C.ar    1  UNL1        0.0997
     30 N         139.4168  141.9073  170.3248 N.ar    1  UNL1       -0.2481
@<TRIPOS>BOND
     1    24    25    1
     2    25    26   ar
     3    26    27   ar
     4    27    22    1
     5    22     1    1
     6     1     2   ar
     7     2     3   ar
     8     3     4   ar
     9     4     5   ar
    10     5     7    1
    11     7     8   ar
    12     8     9   ar
    13     9    12    1
    14    12    13    1
    15    13    14    1
    16    14    15    1
    17    15    16    1
    18    16    17    1
    19     9    10   ar
    20    10    11   ar
    21    11    19    1
    22    19    20    1
    23    20    21    1
    24     5     6   ar
    25    27    28   ar
    26    28    29   ar
    27    29    30   ar
    28    30    25   ar
    29     6     1   ar
    30    11     7   ar
    31    21    19    1
    32    17    12    1
    33    22    23    1
    34    15    18    1
@<TRIPOS>MOLECULE
*****
 30 34 0 0 0
SMALL
GASTEIGER

@<TRIPOS>ATOM
      1 C         138.4434  140.1013  162.3527 C.ar    1  UNL1        0.2207
      2 N         138.0509  138.6622  162.1947 N.ar    1  UNL1       -0.2120
      3 C         138.6241  137.6234  163.1125 C.ar    1  UNL1        0.1034
      4 C         139.5898  138.0237  164.1883 C.ar    1  UNL1        0.0405
      5 C         139.9823  139.4627  164.3462 C.ar    1  UNL1        0.0929
      6 N         139.4091  140.5016  163.4285 N.ar    1  UNL1       -0.2130
      7 C         140.9480  139.8630  165.4220 C.ar    1  UNL1        0.0618
      8 S         140.5873  140.3986  166.7759 S.2     1  UNL1       -0.0696
      9 C         141.8603  140.6646  167.5234 C.ar    1  UNL1        0.0876
     10 N         143.0078  140.2934  166.6314 N.ar    1  UNL1       -0.2470
     11 C         142.4439  139.7980  165.3326 C.ar    1  UNL1        0.0662
     12 C         141.9671  141.2065  168.9179 C.3     1  UNL1        0.0493
     13 C         141.2122  140.5522  170.0367 C.3     1  UNL1        0.0236
     14 C         141.3189  141.0941  171.4313 C.3     1  UNL1        0.0690
     15 N         142.1807  142.2905  171.7070 N.3     1  UNL1       -0.2974
     16 C         142.9357  142.9449  170.5882 C.3     1  UNL1        0.0690
     17 C         142.8289  142.4029  169.1937 C.3     1  UNL1        0.0236
     18 H         142.8719  142.0023  172.3996 H       1  UNL1        0.1232
     19 C         143.2368  139.3213  164.1519 C.3     1  UNL1        0.0409
     20 C         144.5043  139.3287  163.3497 C.3     1  UNL1        0.0063
     21 C         143.3425  138.4883  162.9090 C.3     1  UNL1        0.0063
     22 N         137.8702  141.1402  161.4350 N.pl3   1  UNL1       -0.2825
     23 H         137.1761  140.8916  160.7825 H       1  UNL1        0.1551
     24 C         140.8078  144.9985  159.5682 C.3     1  UNL1        0.0521
     25 C         139.8234  144.4869  160.5779 C.ar    1  UNL1        0.0606
     26 C         139.3390  143.0694  160.5016 C.ar    1  UNL1        0.0294
     27 C         138.3547  142.5578  161.5113 C.ar    1  UNL1        0.0532
     28 C         137.8547  143.4638  162.5972 C.ar    1  UNL1        0.0353
     29 C         138.3392  144.8813  162.6734 C.ar    1  UNL1        0.0997
     30 N         139.3235  145.3929  161.6638 N.ar    1  UNL1       -0.2481
@<TRIPOS>BOND
     1    24    25    1
     2    25    26   ar
     3    26    27   ar
     4    27    22    1
     5    22     1    1
     6     1     2   ar
     7     2     3   ar
     8     3     4   ar
     9     4     5   ar
    10     5     7    1
    11     7     8   ar
    12     8     9   ar
    13     9    12    1
    14    12    13    1
    15    13    14    1
    16    14    15    1
    17    15    16    1
    18    16    17    1
    19     9    10   ar
    20    10    11   ar
    21    11    19    1
    22    19    20    1
    23    20    21    1
    24     5     6   ar
    25    27    28   ar
    26    28    29   ar
    27    29    30   ar
    28    30    25   ar
    29     6     1   ar
    30    11     7   ar
    31    21    19    1
    32    17    12    1
    33    22    23    1
    34    15    18    1
@<TRIPOS>MOLECULE
*****
 30 34 0 0 0
SMALL
GASTEIGER

@<TRIPOS>ATOM
      1 C         140.1476  144.5021  162.4830 C.ar    1  UNL1        0.2207
      2 N         138.7225  144.9129  162.2581 N.ar    1  UNL1       -0.2120
      3 C         137.6339  144.3480  163.1218 C.ar    1  UNL1        0.1034
      4 C         137.9705  143.3723  164.2104 C.ar    1  UNL1        0.0405
      5 C         139.3955  142.9616  164.4352 C.ar    1  UNL1        0.0929
      6 N         140.4840  143.5265  163.5715 N.ar    1  UNL1       -0.2130
      7 C         139.7320  141.9859  165.5238 C.ar    1  UNL1        0.0618
      8 S         140.3472  142.3221  166.8499 S.2     1  UNL1       -0.0696
      9 C         140.5078  141.0468  167.6230 C.ar    1  UNL1        0.0876
     10 N         139.9919  139.9223  166.7747 N.ar    1  UNL1       -0.2470
     11 C         139.5124  140.5028  165.4772 C.ar    1  UNL1        0.0662
     12 C         141.0833  140.9184  169.0022 C.3     1  UNL1        0.0493
     13 C         142.2495  140.0073  169.2464 C.3     1  UNL1        0.0236
     14 C         142.8251  139.8788  170.6256 C.3     1  UNL1        0.0690
     15 N         142.2343  140.6616  171.7607 N.3     1  UNL1       -0.2974
     16 C         141.0680  141.5727  171.5165 C.3     1  UNL1        0.0690
     17 C         140.4925  141.7011  170.1373 C.3     1  UNL1        0.0236
     18 H         142.9839  141.2386  172.1421 H       1  UNL1        0.1232
     19 C         138.9178  139.7350  164.3341 C.3     1  UNL1        0.0409
     20 C         138.7124  138.4393  163.6066 C.3     1  UNL1        0.0063
     21 C         138.0931  139.7007  163.0816 C.3     1  UNL1        0.0063
     22 N         141.2361  145.0670  161.6193 N.pl3   1  UNL1       -0.2825
     23 H         141.1567  145.9810  161.2621 H       1  UNL1        0.1551
     24 C         143.8918  142.0704  158.3075 C.3     1  UNL1        0.0521
     25 C         143.7735  142.7411  159.6440 C.ar    1  UNL1        0.0606
     26 C         142.5640  143.5687  159.9634 C.ar    1  UNL1        0.0294
     27 C         142.4457  144.2394  161.2999 C.ar    1  UNL1        0.0532
     28 C         143.5369  144.0824  162.3170 C.ar    1  UNL1        0.0353
     29 C         144.7465  143.2548  161.9976 C.ar    1  UNL1        0.0997
     30 N         144.8647  142.5841  160.6611 N.ar    1  UNL1       -0.2481
@<TRIPOS>BOND
     1    24    25    1
     2    25    26   ar
     3    26    27   ar
     4    27    22    1
     5    22     1    1
     6     1     2   ar
     7     2     3   ar
     8     3     4   ar
     9     4     5   ar
    10     5     7    1
    11     7     8   ar
    12     8     9   ar
    13     9    12    1
    14    12    13    1
    15    13    14    1
    16    14    15    1
    17    15    16    1
    18    16    17    1
    19     9    10   ar
    20    10    11   ar
    21    11    19    1
    22    19    20    1
    23    20    21    1
    24     5     6   ar
    25    27    28   ar
    26    28    29   ar
    27    29    30   ar
    28    30    25   ar
    29     6     1   ar
    30    11     7   ar
    31    21    19    1
    32    17    12    1
    33    22    23    1
    34    15    18    1
@<TRIPOS>MOLECULE
*****
 30 34 0 0 0
SMALL
GASTEIGER

@<TRIPOS>ATOM
      1 C         139.3966  144.4214  161.9055 C.ar    1  UNL1        0.2207
      2 N         138.1110  143.6551  161.8042 N.ar    1  UNL1       -0.2120
      3 C         137.7802  142.6071  162.8251 C.ar    1  UNL1        0.1034
      4 C         138.7350  142.3254  163.9473 C.ar    1  UNL1        0.0405
      5 C         140.0205  143.0917  164.0485 C.ar    1  UNL1        0.0929
      6 N         140.3513  144.1397  163.0276 N.ar    1  UNL1       -0.2130
      7 C         140.9752  142.8100  165.1707 C.ar    1  UNL1        0.0618
      8 S         140.6082  142.3064  166.5351 S.2     1  UNL1       -0.0696
      9 C         141.8708  142.1676  167.3330 C.ar    1  UNL1        0.0876
     10 N         143.0181  142.5855  166.4617 N.ar    1  UNL1       -0.2470
     11 C         142.4646  142.9825  165.1252 C.ar    1  UNL1        0.0662
     12 C         141.9688  141.6941  168.7529 C.3     1  UNL1        0.0493
     13 C         141.2862  142.4595  169.8475 C.3     1  UNL1        0.0236
     14 C         141.3842  141.9860  171.2675 C.3     1  UNL1        0.0690
     15 N         142.1649  140.7471  171.5927 N.3     1  UNL1       -0.2974
     16 C         142.8475  139.9818  170.4981 C.3     1  UNL1        0.0690
     17 C         142.7494  140.4552  169.0782 C.3     1  UNL1        0.0236
     18 H         141.5174  140.1011  172.0441 H       1  UNL1        0.1232
     19 C         143.2607  143.4670  163.9499 C.3     1  UNL1        0.0409
     20 C         144.0372  143.1789  162.6993 C.3     1  UNL1        0.0063
     21 C         143.8630  144.5943  163.1648 C.3     1  UNL1        0.0063
     22 N         139.7274  145.4694  160.8845 N.pl3   1  UNL1       -0.2825
     23 H         139.3597  146.3782  160.9750 H       1  UNL1        0.1551
     24 C         143.7572  142.8411  158.9217 C.3     1  UNL1        0.0521
     25 C         142.6334  143.8186  158.7444 C.ar    1  UNL1        0.0606
     26 C         141.7423  144.1552  159.9031 C.ar    1  UNL1        0.0294
     27 C         140.6185  145.1327  159.7257 C.ar    1  UNL1        0.0532
     28 C         140.3856  145.7735  158.3897 C.ar    1  UNL1        0.0353
     29 C         141.2766  145.4368  157.2309 C.ar    1  UNL1        0.0997
     30 N         142.4005  144.4593  157.4083 N.ar    1  UNL1       -0.2481
@<TRIPOS>BOND
     1    24    25    1
     2    25    26   ar
     3    26    27   ar
     4    27    22    1
     5    22     1    1
     6     1     2   ar
     7     2     3   ar
     8     3     4   ar
     9     4     5   ar
    10     5     7    1
    11     7     8   ar
    12     8     9   ar
    13     9    12    1
    14    12    13    1
    15    13    14    1
    16    14    15    1
    17    15    16    1
    18    16    17    1
    19     9    10   ar
    20    10    11   ar
    21    11    19    1
    22    19    20    1
    23    20    21    1
    24     5     6   ar
    25    27    28   ar
    26    28    29   ar
    27    29    30   ar
    28    30    25   ar
    29     6     1   ar
    30    11     7   ar
    31    21    19    1
    32    17    12    1
    33    22    23    1
    34    15    18    1
@<TRIPOS>MOLECULE
*****
 30 34 0 0 0
SMALL
GASTEIGER

@<TRIPOS>ATOM
      1 C         143.4852  141.2600  161.5750 C.ar    1  UNL1        0.2207
      2 N         144.0890  139.9885  161.0564 N.ar    1  UNL1       -0.2120
      3 C         144.0706  138.7499  161.9024 C.ar    1  UNL1        0.1034
      4 C         143.4485  138.7829  163.2669 C.ar    1  UNL1        0.0405
      5 C         142.8448  140.0543  163.7854 C.ar    1  UNL1        0.0929
      6 N         142.8631  141.2929  162.9394 N.ar    1  UNL1       -0.2130
      7 C         142.2226  140.0873  165.1500 C.ar    1  UNL1        0.0618
      8 S         142.7224  140.8696  166.3282 S.2     1  UNL1       -0.0696
      9 C         141.8001  140.6095  167.4822 C.ar    1  UNL1        0.0876
     10 N         140.7303  139.6664  167.0172 N.ar    1  UNL1       -0.2470
     11 C         140.9914  139.3437  165.5757 C.ar    1  UNL1        0.0662
     12 C         141.9256  141.1905  168.8594 C.3     1  UNL1        0.0493
     13 C         142.8009  142.3861  169.0921 C.3     1  UNL1        0.0236
     14 C         142.9265  142.9672  170.4693 C.3     1  UNL1        0.0690
     15 N         142.1766  142.3524  171.6138 N.3     1  UNL1       -0.2974
     16 C         141.3013  141.1568  171.3811 C.3     1  UNL1        0.0690
     17 C         141.1758  140.5758  170.0039 C.3     1  UNL1        0.0236
     18 H         141.5798  143.0833  172.0013 H       1  UNL1        0.1232
     19 C         140.1663  138.4366  164.7119 C.3     1  UNL1        0.0409
     20 C         139.9963  137.6466  163.4481 C.3     1  UNL1        0.0063
     21 C         138.9070  137.6555  164.4794 C.3     1  UNL1        0.0063
     22 N         143.5036  142.4985  160.7290 N.pl3   1  UNL1       -0.2825
     23 H         144.3575  142.8459  160.3834 H       1  UNL1        0.1551
     24 C         139.9865  146.1575  161.8434 C.3     1  UNL1        0.0521
     25 C         140.4624  145.0372  160.9668 C.ar    1  UNL1        0.0606
     26 C         141.7450  144.3280  161.2861 C.ar    1  UNL1        0.0294
     27 C         142.2209  143.2077  160.4096 C.ar    1  UNL1        0.0532
     28 C         141.4143  142.7965  159.2137 C.ar    1  UNL1        0.0353
     29 C         140.1317  143.5057  158.8943 C.ar    1  UNL1        0.0997
     30 N         139.6558  144.6260  159.7709 N.ar    1  UNL1       -0.2481
@<TRIPOS>BOND
     1    24    25    1
     2    25    26   ar
     3    26    27   ar
     4    27    22    1
     5    22     1    1
     6     1     2   ar
     7     2     3   ar
     8     3     4   ar
     9     4     5   ar
    10     5     7    1
    11     7     8   ar
    12     8     9   ar
    13     9    12    1
    14    12    13    1
    15    13    14    1
    16    14    15    1
    17    15    16    1
    18    16    17    1
    19     9    10   ar
    20    10    11   ar
    21    11    19    1
    22    19    20    1
    23    20    21    1
    24     5     6   ar
    25    27    28   ar
    26    28    29   ar
    27    29    30   ar
    28    30    25   ar
    29     6     1   ar
    30    11     7   ar
    31    21    19    1
    32    17    12    1
    33    22    23    1
    34    15    18    1
@<TRIPOS>MOLECULE
*****
 30 34 0 0 0
SMALL
GASTEIGER

@<TRIPOS>ATOM
      1 C         141.1522  138.1211  162.3791 C.ar    1  UNL1        0.2207
      2 N         139.8141  137.5790  161.9718 N.ar    1  UNL1       -0.2120
      3 C         138.5714  138.0469  162.6694 C.ar    1  UNL1        0.1034
      4 C         138.6667  139.0569  163.7743 C.ar    1  UNL1        0.0405
      5 C         140.0047  139.5990  164.1816 C.ar    1  UNL1        0.0929
      6 N         141.2474  139.1310  163.4840 N.ar    1  UNL1       -0.2130
      7 C         140.1000  140.6090  165.2866 C.ar    1  UNL1        0.0618
      8 S         140.7516  140.3972  166.6209 S.2     1  UNL1       -0.0696
      9 C         140.6148  141.6654  167.4101 C.ar    1  UNL1        0.0876
     10 N         139.8785  142.6611  166.5635 N.ar    1  UNL1       -0.2470
     11 C         139.5604  142.0081  165.2510 C.ar    1  UNL1        0.0662
     12 C         141.1246  141.8973  168.8015 C.3     1  UNL1        0.0493
     13 C         140.3326  141.4152  169.9806 C.3     1  UNL1        0.0236
     14 C         140.8423  141.6470  171.3721 C.3     1  UNL1        0.0690
     15 N         142.1443  142.3612  171.5846 N.3     1  UNL1       -0.2974
     16 C         142.9363  142.8434  170.4055 C.3     1  UNL1        0.0690
     17 C         142.4265  142.6115  169.0141 C.3     1  UNL1        0.0236
     18 H         142.7481  141.7242  172.1043 H       1  UNL1        0.1232
     19 C         138.8308  142.6429  164.1044 C.3     1  UNL1        0.0409
     20 C         137.8964  143.6932  163.5810 C.3     1  UNL1        0.0063
     21 C         138.5013  142.6920  162.6419 C.3     1  UNL1        0.0063
     22 N         142.3949  137.6531  161.6815 N.pl3   1  UNL1       -0.2825
     23 H         142.9353  136.9286  162.0717 H       1  UNL1        0.1551
     24 C         142.6559  137.5522  156.4929 C.3     1  UNL1        0.0521
     25 C         142.9447  138.2386  157.7950 C.ar    1  UNL1        0.0606
     26 C         142.5254  137.6027  159.0872 C.ar    1  UNL1        0.0294
     27 C         142.8142  138.2891  160.3893 C.ar    1  UNL1        0.0532
     28 C         143.5223  139.6114  160.3992 C.ar    1  UNL1        0.0353
     29 C         143.9416  140.2473  159.1070 C.ar    1  UNL1        0.0997
     30 N         143.6528  139.5609  157.8049 N.ar    1  UNL1       -0.2481
@<TRIPOS>BOND
     1    24    25    1
     2    25    26   ar
     3    26    27   ar
     4    27    22    1
     5    22     1    1
     6     1     2   ar
     7     2     3   ar
     8     3     4   ar
     9     4     5   ar
    10     5     7    1
    11     7     8   ar
    12     8     9   ar
    13     9    12    1
    14    12    13    1
    15    13    14    1
    16    14    15    1
    17    15    16    1
    18    16    17    1
    19     9    10   ar
    20    10    11   ar
    21    11    19    1
    22    19    20    1
    23    20    21    1
    24     5     6   ar
    25    27    28   ar
    26    28    29   ar
    27    29    30   ar
    28    30    25   ar
    29     6     1   ar
    30    11     7   ar
    31    21    19    1
    32    17    12    1
    33    22    23    1
    34    15    18    1
@<TRIPOS>MOLECULE
*****
 30 34 0 0 0
SMALL
GASTEIGER

@<TRIPOS>ATOM
      1 C         142.7920  143.6540  161.8300 C.ar    1  UNL1        0.2207
      2 N         141.9981  144.8516  161.3991 N.ar    1  UNL1       -0.2120
      3 C         140.8179  145.3000  162.2091 C.ar    1  UNL1        0.1034
      4 C         140.4314  144.5507  163.4498 C.ar    1  UNL1        0.0405
      5 C         141.2253  143.3531  163.8805 C.ar    1  UNL1        0.0929
      6 N         142.4055  142.9048  163.0706 N.ar    1  UNL1       -0.2130
      7 C         140.8389  142.6038  165.1213 C.ar    1  UNL1        0.0618
      8 S         141.6142  142.5640  166.4047 S.2     1  UNL1       -0.0696
      9 C         140.8638  141.6984  167.3730 C.ar    1  UNL1        0.0876
     10 N         139.6246  141.2032  166.6880 N.ar    1  UNL1       -0.2470
     11 C         139.6092  141.7628  165.2962 C.ar    1  UNL1        0.0662
     12 C         141.2795  141.3833  168.7792 C.3     1  UNL1        0.0493
     13 C         140.5838  142.0431  169.9327 C.3     1  UNL1        0.0236
     14 C         140.9995  141.7281  171.3391 C.3     1  UNL1        0.0690
     15 N         142.1111  140.7531  171.5920 N.3     1  UNL1       -0.2974
     16 C         142.8068  140.0933  170.4385 C.3     1  UNL1        0.0690
     17 C         142.3911  140.4084  169.0322 C.3     1  UNL1        0.0236
     18 H         141.7223  140.0062  172.1677 H       1  UNL1        0.1232
     19 C         138.5501  141.5234  164.2614 C.3     1  UNL1        0.0409
     20 C         137.4466  142.0423  163.3877 C.3     1  UNL1        0.0063
     21 C         137.8191  140.5899  163.3427 C.3     1  UNL1        0.0063
     22 N         143.9722  143.2056  161.0200 N.pl3   1  UNL1       -0.2825
     23 H         144.7604  143.7892  160.9339 H       1  UNL1        0.1551
     24 C         143.9558  138.0170  161.3005 C.3     1  UNL1        0.0521
     25 C         143.9433  139.2738  160.4816 C.ar    1  UNL1        0.0606
     26 C         143.9640  140.6113  161.1602 C.ar    1  UNL1        0.0294
     27 C         143.9515  141.8680  160.3414 C.ar    1  UNL1        0.0532
     28 C         143.9184  141.7872  158.8439 C.ar    1  UNL1        0.0353
     29 C         143.8978  140.4497  158.1654 C.ar    1  UNL1        0.0997
     30 N         143.9102  139.1929  158.9842 N.ar    1  UNL1       -0.2481
@<TRIPOS>BOND
     1    24    25    1
     2    25    26   ar
     3    26    27   ar
     4    27    22    1
     5    22     1    1
     6     1     2   ar
     7     2     3   ar
     8     3     4   ar
     9     4     5   ar
    10     5     7    1
    11     7     8   ar
    12     8     9   ar
    13     9    12    1
    14    12    13    1
    15    13    14    1
    16    14    15    1
    17    15    16    1
    18    16    17    1
    19     9    10   ar
    20    10    11   ar
    21    11    19    1
    22    19    20    1
    23    20    21    1
    24     5     6   ar
    25    27    28   ar
    26    28    29   ar
    27    29    30   ar
    28    30    25   ar
    29     6     1   ar
    30    11     7   ar
    31    21    19    1
    32    17    12    1
    33    22    23    1
    34    15    18    1
@<TRIPOS>MOLECULE
*****
 30 34 0 0 0
SMALL
GASTEIGER

@<TRIPOS>ATOM
      1 C         140.0336  144.0717  162.2102 C.ar    1  UNL1        0.2207
      2 N         138.6289  144.5859  162.0980 N.ar    1  UNL1       -0.2120
      3 C         137.5901  144.1523  163.0893 C.ar    1  UNL1        0.1034
      4 C         137.9560  143.2045  164.1930 C.ar    1  UNL1        0.0405
      5 C         139.3606  142.6904  164.3052 C.ar    1  UNL1        0.0929
      6 N         140.3995  143.1240  163.3138 N.ar    1  UNL1       -0.2130
      7 C         139.7265  141.7426  165.4088 C.ar    1  UNL1        0.0618
      8 S         140.3096  142.1203  166.7382 S.2     1  UNL1       -0.0696
      9 C         140.5170  140.8619  167.5278 C.ar    1  UNL1        0.0876
     10 N         140.0621  139.7064  166.6863 N.ar    1  UNL1       -0.2470
     11 C         139.5735  140.2508  165.3766 C.ar    1  UNL1        0.0662
     12 C         141.0803  140.7743  168.9151 C.3     1  UNL1        0.0493
     13 C         142.3255  139.9777  169.1700 C.3     1  UNL1        0.0236
     14 C         142.8890  139.8900  170.5574 C.3     1  UNL1        0.0690
     15 N         142.2071  140.5990  171.6900 N.3     1  UNL1       -0.2974
     16 C         140.9619  141.3956  171.4350 C.3     1  UNL1        0.0690
     17 C         140.3986  141.4832  170.0477 C.3     1  UNL1        0.0236
     18 H         142.8911  141.2416  172.0895 H       1  UNL1        0.1232
     19 C         139.0278  139.4448  164.2353 C.3     1  UNL1        0.0409
     20 C         138.2574  139.3680  162.9506 C.3     1  UNL1        0.0063
     21 C         138.8532  138.1255  163.5433 C.3     1  UNL1        0.0063
     22 N         141.0724  144.5054  161.2188 N.pl3   1  UNL1       -0.2825
     23 H         140.9124  145.2936  160.6511 H       1  UNL1        0.1551
     24 C         145.3285  142.4650  163.3921 C.3     1  UNL1        0.0521
     25 C         144.4831  142.7178  162.1790 C.ar    1  UNL1        0.0606
     26 C         143.2005  143.4852  162.3054 C.ar    1  UNL1        0.0294
     27 C         142.3551  143.7379  161.0924 C.ar    1  UNL1        0.0532
     28 C         142.7923  143.2233  159.7530 C.ar    1  UNL1        0.0353
     29 C         144.0749  142.4559  159.6267 C.ar    1  UNL1        0.0997
     30 N         144.9203  142.2031  160.8397 N.ar    1  UNL1       -0.2481
@<TRIPOS>BOND
     1    24    25    1
     2    25    26   ar
     3    26    27   ar
     4    27    22    1
     5    22     1    1
     6     1     2   ar
     7     2     3   ar
     8     3     4   ar
     9     4     5   ar
    10     5     7    1
    11     7     8   ar
    12     8     9   ar
    13     9    12    1
    14    12    13    1
    15    13    14    1
    16    14    15    1
    17    15    16    1
    18    16    17    1
    19     9    10   ar
    20    10    11   ar
    21    11    19    1
    22    19    20    1
    23    20    21    1
    24     5     6   ar
    25    27    28   ar
    26    28    29   ar
    27    29    30   ar
    28    30    25   ar
    29     6     1   ar
    30    11     7   ar
    31    21    19    1
    32    17    12    1
    33    22    23    1
    34    15    18    1
