@<TRIPOS>MOLECULE
*****
 33 36 0 0 0
SMALL
GASTEIGER

@<TRIPOS>ATOM
      1 C         141.0274  140.2005  165.1893 C.2     1  UNL1       -0.0040
      2 C         142.3957  140.1318  165.8001 C.2     1  UNL1       -0.0221
      3 C         136.4148  137.4283  167.8423 C.3     1  UNL1        0.0310
      4 C         137.5680  138.1214  167.1791 C.ar    1  UNL1       -0.0218
      5 C         138.1732  137.5455  165.9333 C.ar    1  UNL1       -0.0043
      6 C         139.3263  138.2385  165.2700 C.ar    1  UNL1       -0.0003
      7 C         139.8743  139.5075  165.8525 C.ar    1  UNL1       -0.0003
      8 C         139.2691  140.0834  167.0983 C.ar    1  UNL1       -0.0003
      9 C         138.1159  139.3903  167.7616 C.ar    1  UNL1       -0.0043
     10 C         143.5488  140.8248  165.1369 C.ar    1  UNL1       -0.0040
     11 C         144.4278  140.0722  164.1825 C.ar    1  UNL1       -0.0003
     12 C         145.5810  140.7653  163.5192 C.ar    1  UNL1       -0.0000
     13 C         145.8551  142.2109  163.8103 C.ar    1  UNL1       -0.0000
     14 C         144.9761  142.9636  164.7648 C.ar    1  UNL1       -0.0000
     15 C         143.8230  142.2706  165.4280 C.ar    1  UNL1       -0.0003
     16 C         140.8123  140.9624  163.9152 C.ar    1  UNL1       -0.0002
     17 C         141.0084  140.2825  162.5926 C.ar    1  UNL1        0.0013
     18 C         140.7933  141.0443  161.3185 C.ar    1  UNL1        0.0145
     19 C         140.3822  142.4861  161.3670 C.ar    1  UNL1        0.0479
     20 C         140.1862  143.1660  162.6896 C.ar    1  UNL1        0.0145
     21 C         140.4012  142.4041  163.9637 C.ar    1  UNL1        0.0013
     22 N         140.1671  143.2479  160.0929 N.pl3   1  UNL1       -0.3046
     23 C         139.4589  142.5984  158.9411 C.3     1  UNL1        0.1081
     24 C         139.2439  143.3603  157.6670 C.3     1  UNL1        0.0938
     25 N         139.7370  144.7716  157.5447 N.3     1  UNL1       -0.2686
     26 C         139.5219  145.5335  156.2706 C.3     1  UNL1        0.0897
     27 C         140.4451  145.4211  158.6965 C.3     1  UNL1        0.0938
     28 C         140.6602  144.6593  159.9705 C.3     1  UNL1        0.1081
     29 C         142.6108  139.3699  167.0742 C.3     1  UNL1        0.0289
     30 C         142.6423  140.0962  168.3862 C.3     1  UNL1        0.0364
     31 C         142.2359  139.3889  169.6451 C.3     1  UNL1        0.1375
     32 O         143.2646  139.0596  170.6858 O.3     1  UNL1       -0.3820
     33 H         143.8893  138.4091  170.3286 H       1  UNL1        0.2104
@<TRIPOS>BOND
     1     3     4    1
     2     4     5   ar
     3     5     6   ar
     4     6     7   ar
     5     7     1    1
     6     1     2    2
     7     2    29    1
     8    29    30    1
     9    30    31    1
    10    31    32    1
    11     2    10    1
    12    10    11   ar
    13    11    12   ar
    14    12    13   ar
    15    13    14   ar
    16    14    15   ar
    17     1    16    1
    18    16    17   ar
    19    17    18   ar
    20    18    19   ar
    21    19    22    1
    22    22    23    1
    23    23    24    1
    24    24    25    1
    25    25    26    1
    26    25    27    1
    27    27    28    1
    28    19    20   ar
    29    20    21   ar
    30     7     8   ar
    31     8     9   ar
    32     9     4   ar
    33    15    10   ar
    34    21    16   ar
    35    28    22    1
    36    32    33    1
@<TRIPOS>MOLECULE
*****
 33 36 0 0 0
SMALL
GASTEIGER

@<TRIPOS>ATOM
      1 C         140.8043  140.5550  164.5946 C.2     1  UNL1       -0.0040
      2 C         139.3543  140.1803  164.5111 C.2     1  UNL1       -0.0221
      3 C         143.4154  141.2667  169.9496 C.3     1  UNL1        0.0310
      4 C         142.7626  141.0888  168.6108 C.ar    1  UNL1       -0.0218
      5 C         142.7153  139.7316  167.9740 C.ar    1  UNL1       -0.0043
      6 C         142.0625  139.5536  166.6352 C.ar    1  UNL1       -0.0003
      7 C         141.4571  140.7330  165.9334 C.ar    1  UNL1       -0.0003
      8 C         141.5044  142.0902  166.5702 C.ar    1  UNL1       -0.0003
      9 C         142.1572  142.2681  167.9090 C.ar    1  UNL1       -0.0043
     10 C         138.7015  140.0024  163.1724 C.ar    1  UNL1       -0.0040
     11 C         138.3642  141.2017  162.3371 C.ar    1  UNL1       -0.0003
     12 C         137.7114  141.0238  160.9984 C.ar    1  UNL1       -0.0000
     13 C         137.3959  139.6466  160.4949 C.ar    1  UNL1       -0.0000
     14 C         137.7332  138.4471  161.3302 C.ar    1  UNL1       -0.0000
     15 C         138.3860  138.6250  162.6689 C.ar    1  UNL1       -0.0003
     16 C         141.6015  140.7519  163.3394 C.ar    1  UNL1       -0.0002
     17 C         141.8776  142.1376  162.8357 C.ar    1  UNL1        0.0013
     18 C         142.6748  142.3344  161.5805 C.ar    1  UNL1        0.0145
     19 C         143.1960  141.1455  160.8289 C.ar    1  UNL1        0.0479
     20 C         142.9200  139.7599  161.3325 C.ar    1  UNL1        0.0145
     21 C         142.1227  139.5630  162.5878 C.ar    1  UNL1        0.0013
     22 N         143.9933  141.3424  159.5736 N.pl3   1  UNL1       -0.3046
     23 C         144.8800  142.5435  159.4289 C.3     1  UNL1        0.1081
     24 C         145.6772  142.7403  158.1737 C.3     1  UNL1        0.0938
     25 N         145.5876  141.7361  157.0631 N.3     1  UNL1       -0.2686
     26 C         146.3849  141.9330  155.8078 C.3     1  UNL1        0.0897
     27 C         144.7009  140.5350  157.2077 C.3     1  UNL1        0.0938
     28 C         143.9037  140.3382  158.4630 C.3     1  UNL1        0.1081
     29 C         138.5570  139.9835  165.7664 C.3     1  UNL1        0.0289
     30 C         138.3340  138.6011  166.3042 C.3     1  UNL1        0.0364
     31 C         137.3627  138.3803  167.4258 C.3     1  UNL1        0.1375
     32 O         136.9090  136.9908  167.7624 O.3     1  UNL1       -0.3820
     33 H         136.3900  136.6327  167.0254 H       1  UNL1        0.2104
@<TRIPOS>BOND
     1     3     4    1
     2     4     5   ar
     3     5     6   ar
     4     6     7   ar
     5     7     1    1
     6     1     2    2
     7     2    29    1
     8    29    30    1
     9    30    31    1
    10    31    32    1
    11     2    10    1
    12    10    11   ar
    13    11    12   ar
    14    12    13   ar
    15    13    14   ar
    16    14    15   ar
    17     1    16    1
    18    16    17   ar
    19    17    18   ar
    20    18    19   ar
    21    19    22    1
    22    22    23    1
    23    23    24    1
    24    24    25    1
    25    25    26    1
    26    25    27    1
    27    27    28    1
    28    19    20   ar
    29    20    21   ar
    30     7     8   ar
    31     8     9   ar
    32     9     4   ar
    33    15    10   ar
    34    21    16   ar
    35    28    22    1
    36    32    33    1
@<TRIPOS>MOLECULE
*****
 33 36 0 0 0
SMALL
GASTEIGER

@<TRIPOS>ATOM
      1 C         140.5492  141.0556  164.1585 C.2     1  UNL1       -0.0040
      2 C         141.7388  141.6576  164.8458 C.2     1  UNL1       -0.0221
      3 C         137.3308  136.8023  166.9065 C.3     1  UNL1        0.0310
      4 C         138.1354  137.8656  166.2195 C.ar    1  UNL1       -0.0218
      5 C         139.0481  137.5010  165.0863 C.ar    1  UNL1       -0.0043
      6 C         139.8527  138.5643  164.3993 C.ar    1  UNL1       -0.0003
      7 C         139.7446  139.9923  164.8455 C.ar    1  UNL1       -0.0003
      8 C         138.8320  140.3570  165.9786 C.ar    1  UNL1       -0.0003
      9 C         138.0274  139.2936  166.6656 C.ar    1  UNL1       -0.0043
     10 C         142.5434  142.7209  164.1588 C.ar    1  UNL1       -0.0040
     11 C         142.1382  144.1605  164.2749 C.ar    1  UNL1       -0.0003
     12 C         142.9428  145.2238  163.5879 C.ar    1  UNL1       -0.0000
     13 C         144.1526  144.8476  162.7849 C.ar    1  UNL1       -0.0000
     14 C         144.5578  143.4080  162.6687 C.ar    1  UNL1       -0.0000
     15 C         143.7532  142.3446  163.3557 C.ar    1  UNL1       -0.0003
     16 C         140.1642  141.5170  162.7842 C.ar    1  UNL1       -0.0002
     17 C         139.1620  142.6206  162.6168 C.ar    1  UNL1        0.0013
     18 C         138.7770  143.0819  161.2424 C.ar    1  UNL1        0.0145
     19 C         139.3942  142.4399  160.0354 C.ar    1  UNL1        0.0479
     20 C         140.3963  141.3364  160.2027 C.ar    1  UNL1        0.0145
     21 C         140.7813  140.8749  161.5771 C.ar    1  UNL1        0.0013
     22 N         139.0091  142.9013  158.6610 N.pl3   1  UNL1       -0.3046
     23 C         139.7891  143.9930  157.9905 C.3     1  UNL1        0.1081
     24 C         139.4041  144.4544  156.6161 C.3     1  UNL1        0.0938
     25 N         138.2390  143.8241  155.9124 N.3     1  UNL1       -0.2686
     26 C         137.8539  144.2855  154.5380 C.3     1  UNL1        0.0897
     27 C         137.4589  142.7324  156.5830 C.3     1  UNL1        0.0938
     28 C         137.8440  142.2710  157.9573 C.3     1  UNL1        0.1081
     29 C         142.1238  141.1962  166.2203 C.3     1  UNL1        0.0289
     30 C         143.1041  141.9910  167.0310 C.3     1  UNL1        0.0364
     31 C         142.9100  142.1357  168.5114 C.3     1  UNL1        0.1375
     32 O         143.9958  142.7351  169.3551 O.3     1  UNL1       -0.3820
     33 H         144.7698  142.1505  169.3492 H       1  UNL1        0.2104
@<TRIPOS>BOND
     1     3     4    1
     2     4     5   ar
     3     5     6   ar
     4     6     7   ar
     5     7     1    1
     6     1     2    2
     7     2    29    1
     8    29    30    1
     9    30    31    1
    10    31    32    1
    11     2    10    1
    12    10    11   ar
    13    11    12   ar
    14    12    13   ar
    15    13    14   ar
    16    14    15   ar
    17     1    16    1
    18    16    17   ar
    19    17    18   ar
    20    18    19   ar
    21    19    22    1
    22    22    23    1
    23    23    24    1
    24    24    25    1
    25    25    26    1
    26    25    27    1
    27    27    28    1
    28    19    20   ar
    29    20    21   ar
    30     7     8   ar
    31     8     9   ar
    32     9     4   ar
    33    15    10   ar
    34    21    16   ar
    35    28    22    1
    36    32    33    1
@<TRIPOS>MOLECULE
*****
 33 36 0 0 0
SMALL
GASTEIGER

@<TRIPOS>ATOM
      1 C         140.5276  141.0665  164.1903 C.2     1  UNL1       -0.0040
      2 C         141.6932  141.6943  164.8953 C.2     1  UNL1       -0.0221
      3 C         137.3736  136.7306  166.8833 C.3     1  UNL1        0.0310
      4 C         138.1621  137.8146  166.2101 C.ar    1  UNL1       -0.0218
      5 C         139.1121  137.4724  165.1009 C.ar    1  UNL1       -0.0043
      6 C         139.9006  138.5564  164.4276 C.ar    1  UNL1       -0.0003
      7 C         139.7391  139.9825  164.8635 C.ar    1  UNL1       -0.0003
      8 C         138.7891  140.3246  165.9727 C.ar    1  UNL1       -0.0003
      9 C         138.0006  139.2407  166.6460 C.ar    1  UNL1       -0.0043
     10 C         142.4817  142.7783  164.2220 C.ar    1  UNL1       -0.0040
     11 C         143.7322  142.4376  163.4670 C.ar    1  UNL1       -0.0003
     12 C         144.5207  143.5215  162.7937 C.ar    1  UNL1       -0.0000
     13 C         144.0587  144.9462  162.8755 C.ar    1  UNL1       -0.0000
     14 C         142.8082  145.2870  163.6306 C.ar    1  UNL1       -0.0000
     15 C         142.0197  144.2031  164.3039 C.ar    1  UNL1       -0.0003
     16 C         140.1505  141.5226  162.8120 C.ar    1  UNL1       -0.0002
     17 C         139.0730  142.5503  162.6306 C.ar    1  UNL1        0.0013
     18 C         138.6959  143.0064  161.2523 C.ar    1  UNL1        0.0145
     19 C         139.3963  142.4348  160.0553 C.ar    1  UNL1        0.0479
     20 C         140.4737  141.4071  160.2366 C.ar    1  UNL1        0.0145
     21 C         140.8509  140.9510  161.6150 C.ar    1  UNL1        0.0013
     22 N         139.0191  142.8909  158.6770 N.pl3   1  UNL1       -0.3046
     23 C         137.8333  142.2866  157.9853 C.3     1  UNL1        0.1081
     24 C         137.4562  142.7428  156.6070 C.3     1  UNL1        0.0938
     25 N         138.2649  143.8032  155.9205 N.3     1  UNL1       -0.2686
     26 C         137.8878  144.2594  154.5421 C.3     1  UNL1        0.0897
     27 C         139.4508  144.4076  156.6122 C.3     1  UNL1        0.0938
     28 C         139.8279  143.9514  157.9905 C.3     1  UNL1        0.1081
     29 C         142.0704  141.2382  166.2737 C.3     1  UNL1        0.0289
     30 C         143.0128  142.0587  167.1035 C.3     1  UNL1        0.0364
     31 C         142.9697  141.9658  168.6000 C.3     1  UNL1        0.1375
     32 O         143.9824  142.7013  169.4266 O.3     1  UNL1       -0.3820
     33 H         144.8633  142.3283  169.2661 H       1  UNL1        0.2104
@<TRIPOS>BOND
     1     3     4    1
     2     4     5   ar
     3     5     6   ar
     4     6     7   ar
     5     7     1    1
     6     1     2    2
     7     2    29    1
     8    29    30    1
     9    30    31    1
    10    31    32    1
    11     2    10    1
    12    10    11   ar
    13    11    12   ar
    14    12    13   ar
    15    13    14   ar
    16    14    15   ar
    17     1    16    1
    18    16    17   ar
    19    17    18   ar
    20    18    19   ar
    21    19    22    1
    22    22    23    1
    23    23    24    1
    24    24    25    1
    25    25    26    1
    26    25    27    1
    27    27    28    1
    28    19    20   ar
    29    20    21   ar
    30     7     8   ar
    31     8     9   ar
    32     9     4   ar
    33    15    10   ar
    34    21    16   ar
    35    28    22    1
    36    32    33    1
@<TRIPOS>MOLECULE
*****
 33 36 0 0 0
SMALL
GASTEIGER

@<TRIPOS>ATOM
      1 C         140.6720  140.9117  164.7786 C.2     1  UNL1       -0.0040
      2 C         140.9804  142.1657  165.5418 C.2     1  UNL1       -0.0221
      3 C         137.0710  136.7520  167.1723 C.3     1  UNL1        0.0310
      4 C         137.9712  137.7919  166.5738 C.ar    1  UNL1       -0.0218
      5 C         138.6914  137.5106  165.2885 C.ar    1  UNL1       -0.0043
      6 C         139.5916  138.5506  164.6901 C.ar    1  UNL1       -0.0003
      7 C         139.7717  139.8718  165.3770 C.ar    1  UNL1       -0.0003
      8 C         139.0516  140.1530  166.6624 C.ar    1  UNL1       -0.0003
      9 C         138.1513  139.1131  167.2608 C.ar    1  UNL1       -0.0043
     10 C         141.8806  143.2056  164.9434 C.ar    1  UNL1       -0.0040
     11 C         143.3674  143.0950  165.1080 C.ar    1  UNL1       -0.0003
     12 C         144.2677  144.1350  164.5096 C.ar    1  UNL1       -0.0000
     13 C         143.6811  145.2855  163.7465 C.ar    1  UNL1       -0.0000
     14 C         142.1942  145.3961  163.5819 C.ar    1  UNL1       -0.0000
     15 C         141.2940  144.3561  164.1803 C.ar    1  UNL1       -0.0003
     16 C         141.2638  140.6977  163.4171 C.ar    1  UNL1       -0.0002
     17 C         142.5672  139.9696  163.2718 C.ar    1  UNL1        0.0013
     18 C         143.1590  139.7556  161.9102 C.ar    1  UNL1        0.0145
     19 C         142.4475  140.2696  160.6939 C.ar    1  UNL1        0.0479
     20 C         141.1442  140.9977  160.8391 C.ar    1  UNL1        0.0145
     21 C         140.5523  141.2118  162.2007 C.ar    1  UNL1        0.0013
     22 N         143.0395  140.0556  159.3323 N.pl3   1  UNL1       -0.3046
     23 C         144.0798  141.0013  158.8096 C.3     1  UNL1        0.1081
     24 C         144.6716  140.7872  157.4481 C.3     1  UNL1        0.0938
     25 N         144.2231  139.6274  156.6092 N.3     1  UNL1       -0.2686
     26 C         144.8151  139.4134  155.2476 C.3     1  UNL1        0.0897
     27 C         143.1828  138.6817  157.1319 C.3     1  UNL1        0.0938
     28 C         142.5910  138.8958  158.4934 C.3     1  UNL1        0.1081
     29 C         140.3885  142.3797  166.9034 C.3     1  UNL1        0.0289
     30 C         141.2859  142.5981  168.0853 C.3     1  UNL1        0.0364
     31 C         140.6936  142.8539  169.4396 C.3     1  UNL1        0.1375
     32 O         140.8180  144.2100  170.0685 O.3     1  UNL1       -0.3820
     33 H         141.7508  144.3922  170.2623 H       1  UNL1        0.2104
@<TRIPOS>BOND
     1     3     4    1
     2     4     5   ar
     3     5     6   ar
     4     6     7   ar
     5     7     1    1
     6     1     2    2
     7     2    29    1
     8    29    30    1
     9    30    31    1
    10    31    32    1
    11     2    10    1
    12    10    11   ar
    13    11    12   ar
    14    12    13   ar
    15    13    14   ar
    16    14    15   ar
    17     1    16    1
    18    16    17   ar
    19    17    18   ar
    20    18    19   ar
    21    19    22    1
    22    22    23    1
    23    23    24    1
    24    24    25    1
    25    25    26    1
    26    25    27    1
    27    27    28    1
    28    19    20   ar
    29    20    21   ar
    30     7     8   ar
    31     8     9   ar
    32     9     4   ar
    33    15    10   ar
    34    21    16   ar
    35    28    22    1
    36    32    33    1
@<TRIPOS>MOLECULE
*****
 33 36 0 0 0
SMALL
GASTEIGER

@<TRIPOS>ATOM
      1 C         140.6399  140.1933  162.0495 C.2     1  UNL1       -0.0040
      2 C         142.0937  140.5514  162.1392 C.2     1  UNL1       -0.0221
      3 C         137.6802  138.4133  166.9558 C.3     1  UNL1        0.0310
      4 C         138.4202  138.8583  165.7292 C.ar    1  UNL1       -0.0218
      5 C         138.4769  140.3147  165.3746 C.ar    1  UNL1       -0.0043
      6 C         139.2168  140.7597  164.1481 C.ar    1  UNL1       -0.0003
      7 C         139.9000  139.7483  163.2761 C.ar    1  UNL1       -0.0003
      8 C         139.8432  138.2920  163.6306 C.ar    1  UNL1       -0.0003
      9 C         139.1033  137.8470  164.8572 C.ar    1  UNL1       -0.0043
     10 C         142.8336  140.9964  160.9126 C.ar    1  UNL1       -0.0040
     11 C         143.0126  142.4594  160.6341 C.ar    1  UNL1       -0.0003
     12 C         143.7525  142.9044  159.4075 C.ar    1  UNL1       -0.0000
     13 C         144.3135  141.8864  158.4594 C.ar    1  UNL1       -0.0000
     14 C         144.1345  140.4233  158.7379 C.ar    1  UNL1       -0.0000
     15 C         143.3946  139.9783  159.9644 C.ar    1  UNL1       -0.0003
     16 C         139.9260  140.2803  160.7332 C.ar    1  UNL1       -0.0002
     17 C         139.9189  139.1023  159.8045 C.ar    1  UNL1        0.0013
     18 C         139.2049  139.1892  158.4882 C.ar    1  UNL1        0.0145
     19 C         138.4981  140.4541  158.1005 C.ar    1  UNL1        0.0479
     20 C         138.5051  141.6321  159.0291 C.ar    1  UNL1        0.0145
     21 C         139.2191  141.5452  160.3454 C.ar    1  UNL1        0.0013
     22 N         137.7841  140.5411  156.7841 N.pl3   1  UNL1       -0.3046
     23 C         138.4475  140.0379  155.5365 C.3     1  UNL1        0.1081
     24 C         137.7335  140.1248  154.2202 C.3     1  UNL1        0.0938
     25 N         136.3562  140.7149  154.1515 N.3     1  UNL1       -0.2686
     26 C         135.6422  140.8018  152.8351 C.3     1  UNL1        0.0897
     27 C         135.6928  141.2181  155.3992 C.3     1  UNL1        0.0938
     28 C         136.4068  141.1312  156.7155 C.3     1  UNL1        0.1081
     29 C         142.8077  140.4644  163.4555 C.3     1  UNL1        0.0289
     30 C         144.2634  140.1047  163.4969 C.3     1  UNL1        0.0364
     31 C         145.2912  141.1662  163.7560 C.3     1  UNL1        0.1375
     32 O         145.9287  141.8893  162.6068 O.3     1  UNL1       -0.3820
     33 H         146.4645  141.2671  162.0905 H       1  UNL1        0.2104
@<TRIPOS>BOND
     1     3     4    1
     2     4     5   ar
     3     5     6   ar
     4     6     7   ar
     5     7     1    1
     6     1     2    2
     7     2    29    1
     8    29    30    1
     9    30    31    1
    10    31    32    1
    11     2    10    1
    12    10    11   ar
    13    11    12   ar
    14    12    13   ar
    15    13    14   ar
    16    14    15   ar
    17     1    16    1
    18    16    17   ar
    19    17    18   ar
    20    18    19   ar
    21    19    22    1
    22    22    23    1
    23    23    24    1
    24    24    25    1
    25    25    26    1
    26    25    27    1
    27    27    28    1
    28    19    20   ar
    29    20    21   ar
    30     7     8   ar
    31     8     9   ar
    32     9     4   ar
    33    15    10   ar
    34    21    16   ar
    35    28    22    1
    36    32    33    1
@<TRIPOS>MOLECULE
*****
 33 36 0 0 0
SMALL
GASTEIGER

@<TRIPOS>ATOM
      1 C         142.3617  141.6007  161.3369 C.2     1  UNL1       -0.0040
      2 C         141.1230  142.4452  161.3849 C.2     1  UNL1       -0.0221
      3 C         143.9079  138.2700  166.0820 C.3     1  UNL1        0.0310
      4 C         143.5214  139.1027  164.8957 C.ar    1  UNL1       -0.0218
      5 C         142.6623  138.5157  163.8153 C.ar    1  UNL1       -0.0043
      6 C         142.2758  139.3484  162.6290 C.ar    1  UNL1       -0.0003
      7 C         142.7483  140.7680  162.5232 C.ar    1  UNL1       -0.0003
      8 C         143.6074  141.3550  163.6036 C.ar    1  UNL1       -0.0003
      9 C         143.9939  140.5223  164.7899 C.ar    1  UNL1       -0.0043
     10 C         140.7365  143.2779  160.1987 C.ar    1  UNL1       -0.0040
     11 C         139.8244  142.7125  159.1507 C.ar    1  UNL1       -0.0003
     12 C         139.4378  143.5451  157.9644 C.ar    1  UNL1       -0.0000
     13 C         139.9634  144.9432  157.8261 C.ar    1  UNL1       -0.0000
     14 C         140.8756  145.5086  158.8741 C.ar    1  UNL1       -0.0000
     15 C         141.2621  144.6760  160.0604 C.ar    1  UNL1       -0.0003
     16 C         143.2139  141.5888  160.1026 C.ar    1  UNL1       -0.0002
     17 C         144.3151  142.5947  159.9417 C.ar    1  UNL1        0.0013
     18 C         145.1673  142.5828  158.7074 C.ar    1  UNL1        0.0145
     19 C         144.9183  141.5652  157.6338 C.ar    1  UNL1        0.0479
     20 C         143.8172  140.5594  157.7946 C.ar    1  UNL1        0.0145
     21 C         142.9650  140.5712  159.0290 C.ar    1  UNL1        0.0013
     22 N         145.7706  141.5534  156.3995 N.pl3   1  UNL1       -0.3046
     23 C         145.2895  140.8544  155.1626 C.3     1  UNL1        0.1081
     24 C         146.1417  140.8426  153.9283 C.3     1  UNL1        0.0938
     25 N         147.4750  141.5298  153.9309 N.3     1  UNL1       -0.2686
     26 C         148.3272  141.5180  152.6965 C.3     1  UNL1        0.0897
     27 C         147.9561  142.2288  155.1677 C.3     1  UNL1        0.0938
     28 C         147.1039  142.2406  156.4020 C.3     1  UNL1        0.1081
     29 C         140.2708  142.4571  162.6193 C.3     1  UNL1        0.0289
     30 C         139.0992  141.5270  162.7308 C.3     1  UNL1        0.0364
     31 C         137.7061  142.0492  162.5392 C.3     1  UNL1        0.1375
     32 O         136.5433  141.3263  163.1516 O.3     1  UNL1       -0.3820
     33 H         136.4488  140.4551  162.7356 H       1  UNL1        0.2104
@<TRIPOS>BOND
     1     3     4    1
     2     4     5   ar
     3     5     6   ar
     4     6     7   ar
     5     7     1    1
     6     1     2    2
     7     2    29    1
     8    29    30    1
     9    30    31    1
    10    31    32    1
    11     2    10    1
    12    10    11   ar
    13    11    12   ar
    14    12    13   ar
    15    13    14   ar
    16    14    15   ar
    17     1    16    1
    18    16    17   ar
    19    17    18   ar
    20    18    19   ar
    21    19    22    1
    22    22    23    1
    23    23    24    1
    24    24    25    1
    25    25    26    1
    26    25    27    1
    27    27    28    1
    28    19    20   ar
    29    20    21   ar
    30     7     8   ar
    31     8     9   ar
    32     9     4   ar
    33    15    10   ar
    34    21    16   ar
    35    28    22    1
    36    32    33    1
@<TRIPOS>MOLECULE
*****
 33 36 0 0 0
SMALL
GASTEIGER

@<TRIPOS>ATOM
      1 C         140.4740  141.3140  161.9689 C.2     1  UNL1       -0.0040
      2 C         140.7564  142.7761  161.7891 C.2     1  UNL1       -0.0221
      3 C         138.6804  139.2392  167.3055 C.3     1  UNL1        0.0310
      4 C         139.1288  139.7579  165.9713 C.ar    1  UNL1       -0.0218
      5 C         138.1149  140.0987  164.9198 C.ar    1  UNL1       -0.0043
      6 C         138.5633  140.6174  163.5857 C.ar    1  UNL1       -0.0003
      7 C         140.0256  140.7953  163.3031 C.ar    1  UNL1       -0.0003
      8 C         141.0396  140.4545  164.3546 C.ar    1  UNL1       -0.0003
      9 C         140.5912  139.9358  165.6887 C.ar    1  UNL1       -0.0043
     10 C         141.2048  143.2948  160.4549 C.ar    1  UNL1       -0.0040
     11 C         142.6298  143.1173  160.0216 C.ar    1  UNL1       -0.0003
     12 C         143.0782  143.6360  158.6875 C.ar    1  UNL1       -0.0000
     13 C         142.1016  144.3322  157.7867 C.ar    1  UNL1       -0.0000
     14 C         140.6765  144.5097  158.2199 C.ar    1  UNL1       -0.0000
     15 C         140.2281  143.9910  159.5541 C.ar    1  UNL1       -0.0003
     16 C         140.6401  140.3705  160.8147 C.ar    1  UNL1       -0.0002
     17 C         141.8826  139.5381  160.6991 C.ar    1  UNL1        0.0013
     18 C         142.0486  138.5947  159.5449 C.ar    1  UNL1        0.0145
     19 C         140.9722  138.4836  158.5062 C.ar    1  UNL1        0.0479
     20 C         139.7297  139.3159  158.6217 C.ar    1  UNL1        0.0145
     21 C         139.5636  140.2594  159.7760 C.ar    1  UNL1        0.0013
     22 N         141.1382  137.5401  157.3519 N.pl3   1  UNL1       -0.3046
     23 C         142.4377  136.8171  157.1552 C.3     1  UNL1        0.1081
     24 C         142.6037  135.8737  156.0009 C.3     1  UNL1        0.0938
     25 N         141.4703  135.6532  155.0434 N.3     1  UNL1       -0.2686
     26 C         141.6364  134.7097  153.8891 C.3     1  UNL1        0.0897
     27 C         140.1709  136.3762  155.2402 C.3     1  UNL1        0.0938
     28 C         140.0048  137.3196  156.3944 C.3     1  UNL1        0.1081
     29 C         140.5904  143.7196  162.9433 C.3     1  UNL1        0.0289
     30 C         139.4538  144.6984  162.9545 C.3     1  UNL1        0.0364
     31 C         138.0390  144.2041  163.0186 C.3     1  UNL1        0.1375
     32 O         137.4304  143.5161  161.8327 O.3     1  UNL1       -0.3820
     33 H         137.3491  144.1464  161.0998 H       1  UNL1        0.2104
@<TRIPOS>BOND
     1     3     4    1
     2     4     5   ar
     3     5     6   ar
     4     6     7   ar
     5     7     1    1
     6     1     2    2
     7     2    29    1
     8    29    30    1
     9    30    31    1
    10    31    32    1
    11     2    10    1
    12    10    11   ar
    13    11    12   ar
    14    12    13   ar
    15    13    14   ar
    16    14    15   ar
    17     1    16    1
    18    16    17   ar
    19    17    18   ar
    20    18    19   ar
    21    19    22    1
    22    22    23    1
    23    23    24    1
    24    24    25    1
    25    25    26    1
    26    25    27    1
    27    27    28    1
    28    19    20   ar
    29    20    21   ar
    30     7     8   ar
    31     8     9   ar
    32     9     4   ar
    33    15    10   ar
    34    21    16   ar
    35    28    22    1
    36    32    33    1
@<TRIPOS>MOLECULE
*****
 33 36 0 0 0
SMALL
GASTEIGER

@<TRIPOS>ATOM
      1 C         140.3137  141.3221  159.0173 C.2     1  UNL1       -0.0040
      2 C         139.8334  141.3566  160.4379 C.2     1  UNL1       -0.0221
      3 C         140.5863  146.3911  155.8187 C.3     1  UNL1        0.0310
      4 C         140.5181  145.1238  156.6184 C.ar    1  UNL1       -0.0218
      5 C         141.6692  144.7270  157.4945 C.ar    1  UNL1       -0.0043
      6 C         141.6010  143.4598  158.2941 C.ar    1  UNL1       -0.0003
      7 C         140.3818  142.5893  158.2177 C.ar    1  UNL1       -0.0003
      8 C         139.2308  142.9862  157.3416 C.ar    1  UNL1       -0.0003
      9 C         139.2990  144.2534  156.5419 C.ar    1  UNL1       -0.0043
     10 C         139.7653  140.0893  161.2376 C.ar    1  UNL1       -0.0040
     11 C         140.9291  139.6761  162.0888 C.ar    1  UNL1       -0.0003
     12 C         140.8610  138.4089  162.8884 C.ar    1  UNL1       -0.0000
     13 C         139.6290  137.5549  162.8369 C.ar    1  UNL1       -0.0000
     14 C         138.4650  137.9681  161.9856 C.ar    1  UNL1       -0.0000
     15 C         138.5331  139.2353  161.1860 C.ar    1  UNL1       -0.0003
     16 C         140.7258  140.0204  158.3964 C.ar    1  UNL1       -0.0002
     17 C         142.1528  139.5663  158.4837 C.ar    1  UNL1        0.0013
     18 C         142.5649  138.2645  157.8628 C.ar    1  UNL1        0.0145
     19 C         141.5501  137.4168  157.1545 C.ar    1  UNL1        0.0479
     20 C         140.1232  137.8709  157.0672 C.ar    1  UNL1        0.0145
     21 C         139.7110  139.1727  157.6882 C.ar    1  UNL1        0.0013
     22 N         141.9623  136.1150  156.5336 N.pl3   1  UNL1       -0.3046
     23 C         141.1622  135.5359  155.4047 C.3     1  UNL1        0.1081
     24 C         141.5744  134.2342  154.7839 C.3     1  UNL1        0.0938
     25 N         142.7868  133.5116  155.2919 N.3     1  UNL1       -0.2686
     26 C         143.1990  132.2098  154.6709 C.3     1  UNL1        0.0897
     27 C         143.5869  134.0907  156.4207 C.3     1  UNL1        0.0938
     28 C         143.1747  135.3924  157.0416 C.3     1  UNL1        0.1081
     29 C         139.4212  142.6584  161.0589 C.3     1  UNL1        0.0289
     30 C         138.0139  142.8462  161.5427 C.3     1  UNL1        0.0364
     31 C         137.6396  142.4393  162.9371 C.3     1  UNL1        0.1375
     32 O         136.5923  141.3880  163.1560 O.3     1  UNL1       -0.3820
     33 H         135.7339  141.7175  162.8471 H       1  UNL1        0.2104
@<TRIPOS>BOND
     1     3     4    1
     2     4     5   ar
     3     5     6   ar
     4     6     7   ar
     5     7     1    1
     6     1     2    2
     7     2    29    1
     8    29    30    1
     9    30    31    1
    10    31    32    1
    11     2    10    1
    12    10    11   ar
    13    11    12   ar
    14    12    13   ar
    15    13    14   ar
    16    14    15   ar
    17     1    16    1
    18    16    17   ar
    19    17    18   ar
    20    18    19   ar
    21    19    22    1
    22    22    23    1
    23    23    24    1
    24    24    25    1
    25    25    26    1
    26    25    27    1
    27    27    28    1
    28    19    20   ar
    29    20    21   ar
    30     7     8   ar
    31     8     9   ar
    32     9     4   ar
    33    15    10   ar
    34    21    16   ar
    35    28    22    1
    36    32    33    1
