@<TRIPOS>MOLECULE
*****
 39 44 0 0 0
SMALL
GASTEIGER

@<TRIPOS>ATOM
      1 C         141.1366  144.6585  158.3204 C.3     1  UNL1        0.0294
      2 C         139.8702  144.4163  157.5538 C.3     1  UNL1        0.0666
      3 S         139.1461  143.1103  157.6951 S.3     1  UNL1       -0.0756
      4 C         139.4791  140.8829  160.8564 C.ar    1  UNL1        0.1669
      5 N         138.4669  141.8899  161.3165 N.ar    1  UNL1       -0.1282
      6 N         138.2191  142.8468  160.1883 N.ar    1  UNL1       -0.1221
      7 C         139.0780  142.4313  159.0309 C.ar    1  UNL1        0.1932
      8 N         139.8566  141.2176  159.4438 N.ar    1  UNL1       -0.2884
      9 C         140.8403  140.4697  158.5933 C.3     1  UNL1        0.1340
     10 C         137.9175  138.7295  167.1947 C.3     1  UNL1        0.0521
     11 C         138.4428  138.9826  165.8127 C.ar    1  UNL1        0.0593
     12 C         137.9031  140.1238  165.0024 C.ar    1  UNL1        0.0147
     13 C         138.4284  140.3768  163.6204 C.ar    1  UNL1        0.0028
     14 C         139.4935  139.4887  163.0486 C.ar    1  UNL1        0.0206
     15 C         140.0188  139.7418  161.6665 C.ar    1  UNL1        0.0374
     16 C         141.0838  138.8537  161.0948 C.ar    1  UNL1        0.0031
     17 C         141.6235  137.7125  161.9050 C.ar    1  UNL1        0.0016
     18 C         141.0982  137.4595  163.2869 C.ar    1  UNL1        0.0191
     19 C         140.0332  138.3476  163.8588 C.ar    1  UNL1        0.0810
     20 N         139.5079  138.0945  165.2409 N.ar    1  UNL1       -0.2497
     21 C         141.1161  145.5161  159.5509 C.3     1  UNL1        0.0730
     22 N         140.9770  144.8834  160.9038 N.3     1  UNL1       -0.2720
     23 C         139.9652  145.5123  161.8154 C.3     1  UNL1        0.0785
     24 C         139.5946  145.1186  163.2146 C.3     1  UNL1        0.0643
     25 C         140.1440  143.9989  164.0477 C.ar    1  UNL1        0.0740
     26 N         139.6854  143.7071  165.4457 N.ar    1  UNL1       -0.2311
     27 C         140.4578  142.5241  165.9496 C.ar    1  UNL1        0.1471
     28 C         140.4297  141.7901  167.2575 C.ar    1  UNL1        0.0413
     29 C         141.3376  140.6168  167.4786 C.ar    1  UNL1        0.0759
     30 C         142.2737  140.1774  166.3920 C.ar    1  UNL1        0.0230
     31 C         142.3018  140.9114  165.0842 C.ar    1  UNL1        0.0811
     32 N         141.3939  142.0847  164.8629 N.ar    1  UNL1       -0.2928
     33 C         141.1999  142.9962  163.6875 C.ar    1  UNL1        0.0577
     34 C         141.9671  142.8657  162.4052 C.3     1  UNL1        0.0627
     35 C         141.8678  143.7056  161.1663 C.3     1  UNL1        0.0784
     36 C         141.3096  139.8829  168.7865 C.3     1  UNL1        0.4187
     37 F         141.2815  139.1489  170.0943 F       1  UNL1       -0.1659
     38 F         142.5859  139.1842  168.4218 F       1  UNL1       -0.1659
     39 F         140.0333  140.5814  169.1511 F       1  UNL1       -0.1659
@<TRIPOS>BOND
     1    10    11    1
     2    11    12   ar
     3    12    13   ar
     4    13    14   ar
     5    14    15   ar
     6    15     4    1
     7     4     5   ar
     8     5     6   ar
     9     6     7   ar
    10     7     3    1
    11     3     2    1
    12     2     1    1
    13     1    21    1
    14    21    22    1
    15    22    23    1
    16    23    24    1
    17    24    25    1
    18    25    26   ar
    19    26    27   ar
    20    27    28   ar
    21    28    29   ar
    22    29    36    1
    23    36    37    1
    24    36    38    1
    25    36    39    1
    26    29    30   ar
    27    30    31   ar
    28    31    32   ar
    29    32    33   ar
    30    33    34    1
    31    34    35    1
    32     7     8   ar
    33     8     9    1
    34    15    16   ar
    35    16    17   ar
    36    17    18   ar
    37    18    19   ar
    38    19    20   ar
    39    20    11   ar
    40    19    14   ar
    41     8     4   ar
    42    35    22    1
    43    33    25   ar
    44    32    27   ar
@<TRIPOS>MOLECULE
*****
 39 44 0 0 0
SMALL
GASTEIGER

@<TRIPOS>ATOM
      1 C         139.2913  142.7094  157.8275 C.3     1  UNL1        0.0294
      2 C         139.5862  144.1799  157.7948 C.3     1  UNL1        0.0666
      3 S         140.9966  144.6656  157.9521 S.3     1  UNL1       -0.0756
      4 C         142.9663  143.4424  161.0649 C.ar    1  UNL1        0.1669
      5 N         143.6206  142.6447  159.9759 N.ar    1  UNL1       -0.1282
      6 N         142.9623  143.0059  158.6774 N.ar    1  UNL1       -0.1221
      7 C         141.9013  144.0267  158.9638 C.ar    1  UNL1        0.1932
      8 N         141.9038  144.2964  160.4392 N.ar    1  UNL1       -0.2884
      9 C         141.0020  145.2525  161.1623 C.3     1  UNL1        0.1340
     10 C         142.6114  138.2962  165.6081 C.3     1  UNL1        0.0521
     11 C         142.7870  139.5707  164.8369 C.ar    1  UNL1        0.0593
     12 C         142.4396  139.6187  163.3784 C.ar    1  UNL1        0.0147
     13 C         142.6152  140.8933  162.6073 C.ar    1  UNL1        0.0028
     14 C         143.1381  142.1198  163.2945 C.ar    1  UNL1        0.0206
     15 C         143.3137  143.3943  162.5232 C.ar    1  UNL1        0.0374
     16 C         143.8366  144.6207  163.2105 C.ar    1  UNL1        0.0031
     17 C         144.1840  144.5727  164.6690 C.ar    1  UNL1        0.0016
     18 C         144.0085  143.2982  165.4401 C.ar    1  UNL1        0.0191
     19 C         143.4855  142.0717  164.7529 C.ar    1  UNL1        0.0810
     20 N         143.3099  140.7972  165.5242 N.ar    1  UNL1       -0.2497
     21 C         138.1180  142.1971  158.6090 C.3     1  UNL1        0.0730
     22 N         138.3143  141.6766  160.0021 N.3     1  UNL1       -0.2720
     23 C         137.9192  140.2467  160.2243 C.3     1  UNL1        0.0785
     24 C         137.9919  139.4419  161.4881 C.3     1  UNL1        0.0643
     25 C         138.4778  139.8681  162.8416 C.ar    1  UNL1        0.0740
     26 N         138.4998  138.9601  164.0354 N.ar    1  UNL1       -0.2311
     27 C         139.0465  139.7353  165.1974 C.ar    1  UNL1        0.1471
     28 C         139.2974  139.3573  166.6271 C.ar    1  UNL1        0.0413
     29 C         139.8643  140.3664  167.5812 C.ar    1  UNL1        0.0759
     30 C         140.1802  141.7535  167.1056 C.ar    1  UNL1        0.0230
     31 C         139.9293  142.1315  165.6759 C.ar    1  UNL1        0.0811
     32 N         139.3624  141.1225  164.7218 N.ar    1  UNL1       -0.2928
     33 C         139.0109  141.2045  163.2658 C.ar    1  UNL1        0.0577
     34 C         139.1899  142.4446  162.4412 C.3     1  UNL1        0.0627
     35 C         138.8798  142.6547  160.9887 C.3     1  UNL1        0.0784
     36 C         140.1153  139.9885  169.0109 C.3     1  UNL1        0.4187
     37 F         140.3662  139.6105  170.4407 F       1  UNL1       -0.1659
     38 F         141.5854  139.8944  168.7280 F       1  UNL1       -0.1659
     39 F         138.6453  140.0825  169.2938 F       1  UNL1       -0.1659
@<TRIPOS>BOND
     1    10    11    1
     2    11    12   ar
     3    12    13   ar
     4    13    14   ar
     5    14    15   ar
     6    15     4    1
     7     4     5   ar
     8     5     6   ar
     9     6     7   ar
    10     7     3    1
    11     3     2    1
    12     2     1    1
    13     1    21    1
    14    21    22    1
    15    22    23    1
    16    23    24    1
    17    24    25    1
    18    25    26   ar
    19    26    27   ar
    20    27    28   ar
    21    28    29   ar
    22    29    36    1
    23    36    37    1
    24    36    38    1
    25    36    39    1
    26    29    30   ar
    27    30    31   ar
    28    31    32   ar
    29    32    33   ar
    30    33    34    1
    31    34    35    1
    32     7     8   ar
    33     8     9    1
    34    15    16   ar
    35    16    17   ar
    36    17    18   ar
    37    18    19   ar
    38    19    20   ar
    39    20    11   ar
    40    19    14   ar
    41     8     4   ar
    42    35    22    1
    43    33    25   ar
    44    32    27   ar
@<TRIPOS>MOLECULE
*****
 39 44 0 0 0
SMALL
GASTEIGER

@<TRIPOS>ATOM
      1 C         144.1431  140.6649  157.6852 C.3     1  UNL1        0.0294
      2 C         143.3946  141.9359  157.4123 C.3     1  UNL1        0.0666
      3 S         143.5881  143.1264  158.3041 S.3     1  UNL1       -0.0756
      4 C         142.2943  143.0373  161.9625 C.ar    1  UNL1        0.1669
      5 N         143.7129  142.5853  162.1456 N.ar    1  UNL1       -0.1282
      6 N         144.3701  142.5637  160.7974 N.ar    1  UNL1       -0.1221
      7 C         143.3578  143.0023  159.7811 C.ar    1  UNL1        0.1932
      8 N         142.0750  143.2950  160.5012 N.ar    1  UNL1       -0.2884
      9 C         140.7970  143.7632  159.8706 C.3     1  UNL1        0.1340
     10 C         142.7634  142.0891  168.7545 C.3     1  UNL1        0.0521
     11 C         142.3911  142.3675  167.3283 C.ar    1  UNL1        0.0593
     12 C         143.4111  142.2022  166.2410 C.ar    1  UNL1        0.0147
     13 C         143.0388  142.4806  164.8148 C.ar    1  UNL1        0.0028
     14 C         141.6466  142.9242  164.4760 C.ar    1  UNL1        0.0206
     15 C         141.2744  143.2025  163.0497 C.ar    1  UNL1        0.0374
     16 C         139.8821  143.6461  162.7110 C.ar    1  UNL1        0.0031
     17 C         138.8621  143.8113  163.7983 C.ar    1  UNL1        0.0016
     18 C         139.2343  143.5330  165.2244 C.ar    1  UNL1        0.0191
     19 C         140.6266  143.0894  165.5633 C.ar    1  UNL1        0.0810
     20 N         140.9988  142.8111  166.9895 N.ar    1  UNL1       -0.2497
     21 C         143.4131  139.4607  158.2017 C.3     1  UNL1        0.0730
     22 N         142.9563  139.4159  159.6297 N.3     1  UNL1       -0.2720
     23 C         143.9955  139.0108  160.6329 C.3     1  UNL1        0.0785
     24 C         143.8558  138.8719  162.1200 C.3     1  UNL1        0.0643
     25 C         142.6426  139.1036  162.9710 C.ar    1  UNL1        0.0740
     26 N         142.6327  138.9287  164.4608 N.ar    1  UNL1       -0.2311
     27 C         141.2533  139.2486  164.9558 C.ar    1  UNL1        0.1471
     28 C         140.6556  139.2487  166.3316 C.ar    1  UNL1        0.0413
     29 C         139.2154  139.6215  166.5236 C.ar    1  UNL1        0.0759
     30 C         138.3729  139.9941  165.3398 C.ar    1  UNL1        0.0230
     31 C         138.9706  139.9940  163.9641 C.ar    1  UNL1        0.0811
     32 N         140.4107  139.6212  163.7720 N.ar    1  UNL1       -0.2928
     33 C         141.2694  139.5316  162.5454 C.ar    1  UNL1        0.0577
     34 C         140.7703  139.8335  161.1634 C.3     1  UNL1        0.0627
     35 C         141.5211  139.7820  159.8659 C.3     1  UNL1        0.0784
     36 C         138.6177  139.6216  167.8993 C.3     1  UNL1        0.4187
     37 F         138.0199  139.6217  169.2751 F       1  UNL1       -0.1659
     38 F         139.7384  140.4918  168.3862 F       1  UNL1       -0.1659
     39 F         137.4971  138.7515  167.4125 F       1  UNL1       -0.1659
@<TRIPOS>BOND
     1    10    11    1
     2    11    12   ar
     3    12    13   ar
     4    13    14   ar
     5    14    15   ar
     6    15     4    1
     7     4     5   ar
     8     5     6   ar
     9     6     7   ar
    10     7     3    1
    11     3     2    1
    12     2     1    1
    13     1    21    1
    14    21    22    1
    15    22    23    1
    16    23    24    1
    17    24    25    1
    18    25    26   ar
    19    26    27   ar
    20    27    28   ar
    21    28    29   ar
    22    29    36    1
    23    36    37    1
    24    36    38    1
    25    36    39    1
    26    29    30   ar
    27    30    31   ar
    28    31    32   ar
    29    32    33   ar
    30    33    34    1
    31    34    35    1
    32     7     8   ar
    33     8     9    1
    34    15    16   ar
    35    16    17   ar
    36    17    18   ar
    37    18    19   ar
    38    19    20   ar
    39    20    11   ar
    40    19    14   ar
    41     8     4   ar
    42    35    22    1
    43    33    25   ar
    44    32    27   ar
@<TRIPOS>MOLECULE
*****
 39 44 0 0 0
SMALL
GASTEIGER

@<TRIPOS>ATOM
      1 C         139.6188  138.6100  158.7082 C.3     1  UNL1        0.0294
      2 C         139.3397  139.5328  157.5588 C.3     1  UNL1        0.0666
      3 S         138.5231  140.7725  157.7736 S.3     1  UNL1       -0.0756
      4 C         139.1977  142.9490  160.9158 C.ar    1  UNL1        0.1669
      5 N         139.9755  143.6961  159.8732 N.ar    1  UNL1       -0.1282
      6 N         139.8174  142.9717  158.5693 N.ar    1  UNL1       -0.1221
      7 C         138.9420  141.7769  158.8060 C.ar    1  UNL1        0.1932
      8 N         138.5590  141.7629  160.2561 N.ar    1  UNL1       -0.2884
      9 C         137.6899  140.7419  160.9287 C.3     1  UNL1        0.1340
     10 C         143.7897  142.6739  166.0235 C.3     1  UNL1        0.0521
     11 C         142.6122  142.8360  165.1085 C.ar    1  UNL1        0.0593
     12 C         142.7304  142.4626  163.6605 C.ar    1  UNL1        0.0147
     13 C         141.5529  142.6247  162.7457 C.ar    1  UNL1        0.0028
     14 C         140.2571  143.1603  163.2786 C.ar    1  UNL1        0.0206
     15 C         139.0795  143.3224  162.3637 C.ar    1  UNL1        0.0374
     16 C         137.7838  143.8580  162.8968 C.ar    1  UNL1        0.0031
     17 C         137.6655  144.2314  164.3447 C.ar    1  UNL1        0.0016
     18 C         138.8430  144.0693  165.2596 C.ar    1  UNL1        0.0191
     19 C         140.1388  143.5338  164.7266 C.ar    1  UNL1        0.0810
     20 N         141.3164  143.3716  165.6416 N.ar    1  UNL1       -0.2497
     21 C         141.0308  138.3786  159.1582 C.3     1  UNL1        0.0730
     22 N         141.3940  138.5449  160.6041 N.3     1  UNL1       -0.2720
     23 C         142.8175  138.2308  160.9578 C.3     1  UNL1        0.0785
     24 C         143.4843  138.2976  162.2999 C.3     1  UNL1        0.0643
     25 C         142.8923  138.6949  163.6194 C.ar    1  UNL1        0.0740
     26 N         143.6719  138.7206  164.9007 N.ar    1  UNL1       -0.2311
     27 C         142.7488  139.1653  165.9962 C.ar    1  UNL1        0.1471
     28 C         142.9632  139.3755  167.4659 C.ar    1  UNL1        0.0413
     29 C         141.8275  139.8349  168.3313 C.ar    1  UNL1        0.0759
     30 C         140.4772  140.0840  167.7271 C.ar    1  UNL1        0.0230
     31 C         140.2629  139.8737  166.2575 C.ar    1  UNL1        0.0811
     32 N         141.3986  139.4144  165.3921 N.ar    1  UNL1       -0.2928
     33 C         141.4873  139.1237  163.9232 C.ar    1  UNL1        0.0577
     34 C         140.3273  139.2610  162.9821 C.3     1  UNL1        0.0627
     35 C         140.2859  139.0034  161.5050 C.3     1  UNL1        0.0784
     36 C         142.0418  140.0451  169.8009 C.3     1  UNL1        0.4187
     37 F         142.2562  140.2554  171.2705 F       1  UNL1       -0.1659
     38 F         140.7259  139.3845  170.0874 F       1  UNL1       -0.1659
     39 F         143.3576  140.7057  169.5145 F       1  UNL1       -0.1659
@<TRIPOS>BOND
     1    10    11    1
     2    11    12   ar
     3    12    13   ar
     4    13    14   ar
     5    14    15   ar
     6    15     4    1
     7     4     5   ar
     8     5     6   ar
     9     6     7   ar
    10     7     3    1
    11     3     2    1
    12     2     1    1
    13     1    21    1
    14    21    22    1
    15    22    23    1
    16    23    24    1
    17    24    25    1
    18    25    26   ar
    19    26    27   ar
    20    27    28   ar
    21    28    29   ar
    22    29    36    1
    23    36    37    1
    24    36    38    1
    25    36    39    1
    26    29    30   ar
    27    30    31   ar
    28    31    32   ar
    29    32    33   ar
    30    33    34    1
    31    34    35    1
    32     7     8   ar
    33     8     9    1
    34    15    16   ar
    35    16    17   ar
    36    17    18   ar
    37    18    19   ar
    38    19    20   ar
    39    20    11   ar
    40    19    14   ar
    41     8     4   ar
    42    35    22    1
    43    33    25   ar
    44    32    27   ar
@<TRIPOS>MOLECULE
*****
 39 44 0 0 0
SMALL
GASTEIGER

@<TRIPOS>ATOM
      1 C         142.8451  138.6062  158.8856 C.3     1  UNL1        0.0294
      2 C         142.6638  139.2071  157.5232 C.3     1  UNL1        0.0666
      3 S         141.3945  139.9316  157.1859 S.3     1  UNL1       -0.0756
      4 C         138.9937  140.6975  160.1381 C.ar    1  UNL1        0.1669
      5 N         138.2094  139.6620  159.3878 N.ar    1  UNL1       -0.1282
      6 N         139.0133  139.2491  158.1907 N.ar    1  UNL1       -0.1221
      7 C         140.2944  140.0294  158.2010 C.ar    1  UNL1        0.1932
      8 N         140.2822  140.9244  159.4046 N.ar    1  UNL1       -0.2884
      9 C         141.3680  141.8790  159.8045 C.3     1  UNL1        0.1340
     10 C         138.2589  138.3045  166.5400 C.3     1  UNL1        0.0521
     11 C         138.3353  139.0746  165.2551 C.ar    1  UNL1        0.0593
     12 C         138.7644  138.3870  163.9929 C.ar    1  UNL1        0.0147
     13 C         138.8408  139.1571  162.7080 C.ar    1  UNL1        0.0028
     14 C         138.4882  140.6149  162.6852 C.ar    1  UNL1        0.0206
     15 C         138.5647  141.3851  161.4002 C.ar    1  UNL1        0.0374
     16 C         138.2121  142.8428  161.3776 C.ar    1  UNL1        0.0031
     17 C         137.7830  143.5305  162.6397 C.ar    1  UNL1        0.0016
     18 C         137.7066  142.7604  163.9246 C.ar    1  UNL1        0.0191
     19 C         138.0592  141.3026  163.9474 C.ar    1  UNL1        0.0810
     20 N         137.9827  140.5325  165.2323 N.ar    1  UNL1       -0.2497
     21 C         143.8514  139.1876  159.8339 C.3     1  UNL1        0.0730
     22 N         143.5170  139.3275  161.2894 N.3     1  UNL1       -0.2720
     23 C         142.7987  138.1643  161.9068 C.3     1  UNL1        0.0785
     24 C         142.3310  137.9985  163.3224 C.3     1  UNL1        0.0643
     25 C         142.4662  138.9547  164.4701 C.ar    1  UNL1        0.0740
     26 N         141.9515  138.6679  165.8496 N.ar    1  UNL1       -0.2311
     27 C         142.2697  139.8490  166.7178 C.ar    1  UNL1        0.1471
     28 C         142.0035  140.1301  168.1670 C.ar    1  UNL1        0.0413
     29 C         142.4487  141.4278  168.7734 C.ar    1  UNL1        0.0759
     30 C         143.1600  142.4445  167.9305 C.ar    1  UNL1        0.0230
     31 C         143.4261  142.1635  166.4813 C.ar    1  UNL1        0.0811
     32 N         142.9810  140.8658  165.8749 N.ar    1  UNL1       -0.2928
     33 C         143.1024  140.3130  164.4858 C.ar    1  UNL1        0.0577
     34 C         143.7606  141.0505  163.3576 C.3     1  UNL1        0.0627
     35 C         143.9450  140.6119  161.9351 C.3     1  UNL1        0.0784
     36 C         142.1826  141.7089  170.2225 C.3     1  UNL1        0.4187
     37 F         141.9165  141.9900  171.6717 F       1  UNL1       -0.1659
     38 F         142.0363  140.2385  170.4809 F       1  UNL1       -0.1659
     39 F         142.3289  143.1792  169.9642 F       1  UNL1       -0.1659
@<TRIPOS>BOND
     1    10    11    1
     2    11    12   ar
     3    12    13   ar
     4    13    14   ar
     5    14    15   ar
     6    15     4    1
     7     4     5   ar
     8     5     6   ar
     9     6     7   ar
    10     7     3    1
    11     3     2    1
    12     2     1    1
    13     1    21    1
    14    21    22    1
    15    22    23    1
    16    23    24    1
    17    24    25    1
    18    25    26   ar
    19    26    27   ar
    20    27    28   ar
    21    28    29   ar
    22    29    36    1
    23    36    37    1
    24    36    38    1
    25    36    39    1
    26    29    30   ar
    27    30    31   ar
    28    31    32   ar
    29    32    33   ar
    30    33    34    1
    31    34    35    1
    32     7     8   ar
    33     8     9    1
    34    15    16   ar
    35    16    17   ar
    36    17    18   ar
    37    18    19   ar
    38    19    20   ar
    39    20    11   ar
    40    19    14   ar
    41     8     4   ar
    42    35    22    1
    43    33    25   ar
    44    32    27   ar
@<TRIPOS>MOLECULE
*****
 39 44 0 0 0
SMALL
GASTEIGER

@<TRIPOS>ATOM
      1 C         141.6917  142.1550  156.7484 C.3     1  UNL1        0.0294
      2 C         141.6605  143.6476  156.8951 C.3     1  UNL1        0.0666
      3 S         140.4085  144.3294  157.3615 S.3     1  UNL1       -0.0756
      4 C         139.1732  143.5060  160.9478 C.ar    1  UNL1        0.1669
      5 N         138.1544  142.7834  160.1172 N.ar    1  UNL1       -0.1282
      6 N         138.4932  143.0039  158.6728 N.ar    1  UNL1       -0.1221
      7 C         139.7213  143.8628  158.6106 C.ar    1  UNL1        0.1932
      8 N         140.1416  144.1731  160.0166 N.ar    1  UNL1       -0.2884
      9 C         141.3230  145.0046  160.4206 C.3     1  UNL1        0.1340
     10 C         139.2071  138.4551  165.6102 C.3     1  UNL1        0.0521
     11 C         139.2093  139.7296  164.8192 C.ar    1  UNL1        0.0593
     12 C         139.1664  139.6824  163.3206 C.ar    1  UNL1        0.0147
     13 C         139.1687  140.9569  162.5297 C.ar    1  UNL1        0.0028
     14 C         139.2138  142.2787  163.2374 C.ar    1  UNL1        0.0206
     15 C         139.2161  143.5533  162.4464 C.ar    1  UNL1        0.0374
     16 C         139.2612  144.8750  163.1542 C.ar    1  UNL1        0.0031
     17 C         139.3041  144.9222  164.6528 C.ar    1  UNL1        0.0016
     18 C         139.3018  143.6478  165.4437 C.ar    1  UNL1        0.0191
     19 C         139.2567  142.3260  164.7360 C.ar    1  UNL1        0.0810
     20 N         139.2544  141.0514  165.5270 N.ar    1  UNL1       -0.2497
     21 C         142.8646  141.3751  157.2641 C.3     1  UNL1        0.0730
     22 N         142.8477  140.8314  158.6620 N.3     1  UNL1       -0.2720
     23 C         142.8354  139.3359  158.7785 C.3     1  UNL1        0.0785
     24 C         142.8177  138.4947  160.0204 C.3     1  UNL1        0.0643
     25 C         142.8079  138.9412  161.4522 C.ar    1  UNL1        0.0740
     26 N         142.7901  137.9921  162.6137 N.ar    1  UNL1       -0.2311
     27 C         142.7846  138.8034  163.8753 C.ar    1  UNL1        0.1471
     28 C         142.7683  138.4087  165.3224 C.ar    1  UNL1        0.0413
     29 C         142.7665  139.4646  166.3877 C.ar    1  UNL1        0.0759
     30 C         142.7809  140.9153  166.0061 C.ar    1  UNL1        0.0230
     31 C         142.7971  141.3099  164.5590 C.ar    1  UNL1        0.0811
     32 N         142.7990  140.2541  163.4936 N.ar    1  UNL1       -0.2928
     33 C         142.8134  140.3391  161.9961 C.ar    1  UNL1        0.0577
     34 C         142.8300  141.6359  161.2423 C.3     1  UNL1        0.0627
     35 C         142.8453  141.8549  159.7584 C.3     1  UNL1        0.0784
     36 C         142.7502  139.0700  167.8348 C.3     1  UNL1        0.4187
     37 F         142.7340  138.6754  169.2818 F       1  UNL1       -0.1659
     38 F         141.6933  140.0999  168.1038 F       1  UNL1       -0.1659
     39 F         143.8071  138.0402  167.5658 F       1  UNL1       -0.1659
@<TRIPOS>BOND
     1    10    11    1
     2    11    12   ar
     3    12    13   ar
     4    13    14   ar
     5    14    15   ar
     6    15     4    1
     7     4     5   ar
     8     5     6   ar
     9     6     7   ar
    10     7     3    1
    11     3     2    1
    12     2     1    1
    13     1    21    1
    14    21    22    1
    15    22    23    1
    16    23    24    1
    17    24    25    1
    18    25    26   ar
    19    26    27   ar
    20    27    28   ar
    21    28    29   ar
    22    29    36    1
    23    36    37    1
    24    36    38    1
    25    36    39    1
    26    29    30   ar
    27    30    31   ar
    28    31    32   ar
    29    32    33   ar
    30    33    34    1
    31    34    35    1
    32     7     8   ar
    33     8     9    1
    34    15    16   ar
    35    16    17   ar
    36    17    18   ar
    37    18    19   ar
    38    19    20   ar
    39    20    11   ar
    40    19    14   ar
    41     8     4   ar
    42    35    22    1
    43    33    25   ar
    44    32    27   ar
@<TRIPOS>MOLECULE
*****
 39 44 0 0 0
SMALL
GASTEIGER

@<TRIPOS>ATOM
      1 C         141.9654  138.4595  158.3561 C.3     1  UNL1        0.0294
      2 C         141.8671  139.3898  157.1834 C.3     1  UNL1        0.0666
      3 S         140.7368  140.3721  157.0982 S.3     1  UNL1       -0.0756
      4 C         138.5932  140.9351  160.2847 C.ar    1  UNL1        0.1669
      5 N         137.6634  140.1017  159.4534 N.ar    1  UNL1       -0.1282
      6 N         138.3533  139.7894  158.1586 N.ar    1  UNL1       -0.1221
      7 C         139.7094  140.4298  158.1896 C.ar    1  UNL1        0.1932
      8 N         139.8576  141.1378  159.5036 N.ar    1  UNL1       -0.2884
      9 C         141.0594  141.9127  159.9569 C.3     1  UNL1        0.1340
     10 C         138.4512  137.8028  166.4018 C.3     1  UNL1        0.0521
     11 C         138.4155  138.7200  165.2154 C.ar    1  UNL1        0.0593
     12 C         138.7002  138.1835  163.8438 C.ar    1  UNL1        0.0147
     13 C         138.6645  139.1008  162.6575 C.ar    1  UNL1        0.0028
     14 C         138.3442  140.5544  162.8426 C.ar    1  UNL1        0.0206
     15 C         138.3085  141.4716  161.6562 C.ar    1  UNL1        0.0374
     16 C         137.9881  142.9252  161.8414 C.ar    1  UNL1        0.0031
     17 C         137.7034  143.4616  163.2130 C.ar    1  UNL1        0.0016
     18 C         137.7391  142.5445  164.3993 C.ar    1  UNL1        0.0191
     19 C         138.0595  141.0909  164.2141 C.ar    1  UNL1        0.0810
     20 N         138.0951  140.1737  165.4006 N.ar    1  UNL1       -0.2497
     21 C         143.2157  138.4262  159.1842 C.3     1  UNL1        0.0730
     22 N         143.2602  139.1373  160.5042 N.3     1  UNL1       -0.2720
     23 C         144.0912  140.3855  160.5432 C.3     1  UNL1        0.0785
     24 C         144.3351  141.3109  161.6984 C.3     1  UNL1        0.0643
     25 C         143.8083  141.2166  163.0996 C.ar    1  UNL1        0.0740
     26 N         144.1290  142.2152  164.1720 N.ar    1  UNL1       -0.2311
     27 C         143.4264  141.7895  165.4270 C.ar    1  UNL1        0.1471
     28 C         143.3766  142.3877  166.8017 C.ar    1  UNL1        0.0413
     29 C         142.5718  141.7242  167.8796 C.ar    1  UNL1        0.0759
     30 C         141.8167  140.4624  167.5829 C.ar    1  UNL1        0.0230
     31 C         141.8666  139.8642  166.2082 C.ar    1  UNL1        0.0811
     32 N         142.6714  140.5277  165.1303 N.ar    1  UNL1       -0.2928
     33 C         142.9074  140.1737  163.6919 C.ar    1  UNL1        0.0577
     34 C         142.3109  138.9675  163.0292 C.3     1  UNL1        0.0627
     35 C         142.4680  138.5063  161.6105 C.3     1  UNL1        0.0784
     36 C         142.5219  142.3224  169.2542 C.3     1  UNL1        0.4187
     37 F         142.4721  142.9205  170.6289 F       1  UNL1       -0.1659
     38 F         141.3239  143.1334  168.8579 F       1  UNL1       -0.1659
     39 F         143.7198  141.5114  169.6505 F       1  UNL1       -0.1659
@<TRIPOS>BOND
     1    10    11    1
     2    11    12   ar
     3    12    13   ar
     4    13    14   ar
     5    14    15   ar
     6    15     4    1
     7     4     5   ar
     8     5     6   ar
     9     6     7   ar
    10     7     3    1
    11     3     2    1
    12     2     1    1
    13     1    21    1
    14    21    22    1
    15    22    23    1
    16    23    24    1
    17    24    25    1
    18    25    26   ar
    19    26    27   ar
    20    27    28   ar
    21    28    29   ar
    22    29    36    1
    23    36    37    1
    24    36    38    1
    25    36    39    1
    26    29    30   ar
    27    30    31   ar
    28    31    32   ar
    29    32    33   ar
    30    33    34    1
    31    34    35    1
    32     7     8   ar
    33     8     9    1
    34    15    16   ar
    35    16    17   ar
    36    17    18   ar
    37    18    19   ar
    38    19    20   ar
    39    20    11   ar
    40    19    14   ar
    41     8     4   ar
    42    35    22    1
    43    33    25   ar
    44    32    27   ar
@<TRIPOS>MOLECULE
*****
 39 44 0 0 0
SMALL
GASTEIGER

@<TRIPOS>ATOM
      1 C         140.4385  139.9048  158.3151 C.3     1  UNL1        0.0294
      2 C         141.6073  139.3697  157.5419 C.3     1  UNL1        0.0666
      3 S         143.0032  139.7630  157.9248 S.3     1  UNL1       -0.0756
      4 C         143.7935  140.5798  161.6361 C.ar    1  UNL1        0.1669
      5 N         144.2340  139.1482  161.5542 N.ar    1  UNL1       -0.1282
      6 N         143.9915  138.6680  160.1540 N.ar    1  UNL1       -0.1221
      7 C         143.4012  139.8028  159.3705 C.ar    1  UNL1        0.1932
      8 N         143.2789  140.9842  160.2865 N.ar    1  UNL1       -0.2884
      9 C         142.7370  142.3335  159.9176 C.3     1  UNL1        0.1340
     10 C         142.7526  139.1289  168.2740 C.3     1  UNL1        0.0521
     11 C         143.0286  139.7100  166.9189 C.ar    1  UNL1        0.0593
     12 C         142.9655  138.8364  165.7012 C.ar    1  UNL1        0.0147
     13 C         143.2415  139.4175  164.3462 C.ar    1  UNL1        0.0028
     14 C         143.5806  140.8722  164.2088 C.ar    1  UNL1        0.0206
     15 C         143.8566  141.4533  162.8537 C.ar    1  UNL1        0.0374
     16 C         144.1958  142.9080  162.7165 C.ar    1  UNL1        0.0031
     17 C         144.2589  143.7816  163.9342 C.ar    1  UNL1        0.0016
     18 C         143.9829  143.2005  165.2892 C.ar    1  UNL1        0.0191
     19 C         143.6438  141.7458  165.4266 C.ar    1  UNL1        0.0810
     20 N         143.3678  141.1648  166.7816 N.ar    1  UNL1       -0.2497
     21 C         139.6470  138.9928  159.2049 C.3     1  UNL1        0.0730
     22 N         139.6327  139.2185  160.6877 N.3     1  UNL1       -0.2720
     23 C         139.2752  138.0256  161.5240 C.3     1  UNL1        0.0785
     24 C         139.1745  137.9268  163.0175 C.3     1  UNL1        0.0643
     25 C         139.4063  138.9963  164.0432 C.ar    1  UNL1        0.0740
     26 N         139.2721  138.7681  165.5197 N.ar    1  UNL1       -0.2311
     27 C         139.5790  140.0597  166.2181 C.ar    1  UNL1        0.1471
     28 C         139.6055  140.4337  167.6705 C.ar    1  UNL1        0.0413
     29 C         139.9557  141.8341  168.0780 C.ar    1  UNL1        0.0759
     30 C         140.2795  142.8606  167.0331 C.ar    1  UNL1        0.0230
     31 C         140.2531  142.4865  165.5808 C.ar    1  UNL1        0.0811
     32 N         139.9028  141.0861  165.1732 N.ar    1  UNL1       -0.2928
     33 C         139.7960  140.4288  163.8291 C.ar    1  UNL1        0.0577
     34 C         140.0503  141.1457  162.5363 C.3     1  UNL1        0.0627
     35 C         139.9776  140.6069  161.1382 C.3     1  UNL1        0.0784
     36 C         139.9821  142.2082  169.5303 C.3     1  UNL1        0.4187
     37 F         140.0086  142.5824  170.9827 F       1  UNL1       -0.1659
     38 F         139.5385  140.8226  169.8954 F       1  UNL1       -0.1659
     39 F         140.4257  143.5938  169.1653 F       1  UNL1       -0.1659
@<TRIPOS>BOND
     1    10    11    1
     2    11    12   ar
     3    12    13   ar
     4    13    14   ar
     5    14    15   ar
     6    15     4    1
     7     4     5   ar
     8     5     6   ar
     9     6     7   ar
    10     7     3    1
    11     3     2    1
    12     2     1    1
    13     1    21    1
    14    21    22    1
    15    22    23    1
    16    23    24    1
    17    24    25    1
    18    25    26   ar
    19    26    27   ar
    20    27    28   ar
    21    28    29   ar
    22    29    36    1
    23    36    37    1
    24    36    38    1
    25    36    39    1
    26    29    30   ar
    27    30    31   ar
    28    31    32   ar
    29    32    33   ar
    30    33    34    1
    31    34    35    1
    32     7     8   ar
    33     8     9    1
    34    15    16   ar
    35    16    17   ar
    36    17    18   ar
    37    18    19   ar
    38    19    20   ar
    39    20    11   ar
    40    19    14   ar
    41     8     4   ar
    42    35    22    1
    43    33    25   ar
    44    32    27   ar
@<TRIPOS>MOLECULE
*****
 39 44 0 0 0
SMALL
GASTEIGER

@<TRIPOS>ATOM
      1 C         143.8299  142.1154  157.6479 C.3     1  UNL1        0.0294
      2 C         142.7591  142.3994  156.6364 C.3     1  UNL1        0.0666
      3 S         141.5850  143.2558  157.0076 S.3     1  UNL1       -0.0756
      4 C         140.7617  144.0441  160.7180 C.ar    1  UNL1        0.1669
      5 N         141.7369  145.1383  160.3986 N.ar    1  UNL1       -0.1282
      6 N         142.1639  144.9762  158.9698 N.ar    1  UNL1       -0.1221
      7 C         141.4527  143.7818  158.4062 C.ar    1  UNL1        0.1932
      8 N         140.5862  143.2058  159.4865 N.ar    1  UNL1       -0.2884
      9 C         139.6997  142.0025  159.3581 C.3     1  UNL1        0.1340
     10 C         143.3246  142.4428  166.8920 C.3     1  UNL1        0.0521
     11 C         142.5139  142.7887  165.6782 C.ar    1  UNL1        0.0593
     12 C         143.1939  143.0063  164.3591 C.ar    1  UNL1        0.0147
     13 C         142.3832  143.3523  163.1454 C.ar    1  UNL1        0.0028
     14 C         140.8924  143.4806  163.2508 C.ar    1  UNL1        0.0206
     15 C         140.0817  143.8265  162.0370 C.ar    1  UNL1        0.0374
     16 C         138.5910  143.9547  162.1425 C.ar    1  UNL1        0.0031
     17 C         137.9109  143.7371  163.4617 C.ar    1  UNL1        0.0016
     18 C         138.7215  143.3912  164.6753 C.ar    1  UNL1        0.0191
     19 C         140.2123  143.2629  164.5699 C.ar    1  UNL1        0.0810
     20 N         141.0230  142.9170  165.7837 N.ar    1  UNL1       -0.2497
     21 C         144.0041  140.7260  158.1855 C.3     1  UNL1        0.0730
     22 N         143.0350  140.1853  159.1947 N.3     1  UNL1       -0.2720
     23 C         142.0280  139.2051  158.6699 C.3     1  UNL1        0.0785
     24 C         140.9383  138.4938  159.4160 C.3     1  UNL1        0.0643
     25 C         140.5865  138.5869  160.8711 C.ar    1  UNL1        0.0740
     26 N         139.4637  137.8169  161.5007 N.ar    1  UNL1       -0.2311
     27 C         139.4206  138.1685  162.9583 C.ar    1  UNL1        0.1471
     28 C         138.5248  137.7172  164.0736 C.ar    1  UNL1        0.0413
     29 C         138.7253  138.2531  165.4602 C.ar    1  UNL1        0.0759
     30 C         139.8216  139.2404  165.7315 C.ar    1  UNL1        0.0230
     31 C         140.7174  139.6917  164.6162 C.ar    1  UNL1        0.0811
     32 N         140.5169  139.1558  163.2296 N.ar    1  UNL1       -0.2928
     33 C         141.2374  139.4144  161.9397 C.ar    1  UNL1        0.0577
     34 C         142.4010  140.3530  161.8169 C.3     1  UNL1        0.0627
     35 C         143.2009  140.6961  160.5952 C.3     1  UNL1        0.0784
     36 C         137.8296  137.8019  166.5755 C.3     1  UNL1        0.4187
     37 F         136.9339  137.3505  167.6908 F       1  UNL1       -0.1659
     38 F         137.6799  139.2234  167.0305 F       1  UNL1       -0.1659
     39 F         137.9793  136.3804  166.1206 F       1  UNL1       -0.1659
@<TRIPOS>BOND
     1    10    11    1
     2    11    12   ar
     3    12    13   ar
     4    13    14   ar
     5    14    15   ar
     6    15     4    1
     7     4     5   ar
     8     5     6   ar
     9     6     7   ar
    10     7     3    1
    11     3     2    1
    12     2     1    1
    13     1    21    1
    14    21    22    1
    15    22    23    1
    16    23    24    1
    17    24    25    1
    18    25    26   ar
    19    26    27   ar
    20    27    28   ar
    21    28    29   ar
    22    29    36    1
    23    36    37    1
    24    36    38    1
    25    36    39    1
    26    29    30   ar
    27    30    31   ar
    28    31    32   ar
    29    32    33   ar
    30    33    34    1
    31    34    35    1
    32     7     8   ar
    33     8     9    1
    34    15    16   ar
    35    16    17   ar
    36    17    18   ar
    37    18    19   ar
    38    19    20   ar
    39    20    11   ar
    40    19    14   ar
    41     8     4   ar
    42    35    22    1
    43    33    25   ar
    44    32    27   ar
