@<TRIPOS>MOLECULE
*****
 38 42 0 0 0
SMALL
GASTEIGER

@<TRIPOS>ATOM
      1 S         139.5028  142.0308  165.3084 S.O2    1  UNL1        0.0736
      2 O         138.5210  141.2045  164.5318 O.2     1  UNL1       -0.1499
      3 O         140.4846  142.8571  166.0850 O.2     1  UNL1       -0.1499
      4 C         139.6936  142.9231  164.1179 C.ar    1  UNL1        0.1251
      5 C         140.3158  144.2773  164.2877 C.ar    1  UNL1        0.0199
      6 C         140.5066  145.1697  163.0971 C.ar    1  UNL1       -0.0029
      7 C         140.0752  144.7078  161.7368 C.ar    1  UNL1       -0.0220
      8 C         139.4529  143.3535  161.5670 C.ar    1  UNL1       -0.0029
      9 C         139.2621  142.4612  162.7575 C.ar    1  UNL1        0.0199
     10 C         140.2660  145.6000  160.5463 C.3     1  UNL1        0.0289
     11 C         141.2862  145.2512  159.5033 C.3     1  UNL1        0.0367
     12 C         141.9364  143.8995  159.5127 C.3     1  UNL1        0.1424
     13 O         143.3076  143.7310  160.0968 O.3     1  UNL1       -0.3561
     14 C         143.4689  143.4323  161.5580 C.3     1  UNL1        0.1179
     15 C         143.0901  142.0836  162.0941 C.3     1  UNL1        0.0455
     16 C         143.2514  141.7850  163.5551 C.3     1  UNL1        0.0600
     17 C         143.5688  141.9289  165.0141 C.3     1  UNL1        0.0174
     18 C         144.0995  143.3139  165.2386 C.3     1  UNL1        0.0174
     19 C         144.1100  144.0259  163.9184 C.3     1  UNL1        0.0600
     20 C         144.0092  144.4824  162.4829 C.3     1  UNL1        0.0455
     21 N         143.5859  143.0810  162.8779 N.3     1  UNL1       -0.2739
     22 C         143.5709  143.4130  162.1534 C.3     1  UNL1        0.0896
     23 N         139.3120  141.1385  166.4990 N.pl3   1  UNL1       -0.2153
     24 H         138.4055  140.9541  166.8358 H       1  UNL1        0.1737
     25 C         141.3696  139.5534  166.4348 C.ar    1  UNL1       -0.0075
     26 C         142.5601  138.9421  167.1122 C.ar    1  UNL1       -0.0015
     27 C         142.8835  139.3045  168.5314 C.ar    1  UNL1        0.0189
     28 C         142.0165  140.2782  169.2731 C.ar    1  UNL1        0.0825
     29 N         142.3400  140.6406  170.6923 N.ar    1  UNL1       -0.2438
     30 C         141.4730  141.6143  171.4340 C.ar    1  UNL1        0.0988
     31 C         140.2825  142.2256  170.7565 C.ar    1  UNL1        0.0207
     32 C         139.9590  141.8633  169.3374 C.ar    1  UNL1        0.0044
     33 C         140.8260  140.8896  168.5957 C.ar    1  UNL1        0.0320
     34 C         140.5025  140.5272  167.1765 C.ar    1  UNL1        0.0622
     35 C         141.0461  139.1910  165.0156 C.3     1  UNL1        0.0276
     36 C         141.0272  136.8320  163.9272 C.3     1  UNL1        0.0003
     37 C         140.3347  137.9055  164.7133 C.3     1  UNL1        0.0044
     38 C         138.9307  137.6935  165.1971 C.3     1  UNL1        0.0003
@<TRIPOS>BOND
     1    36    37    1
     2    37    38    1
     3    37    35    1
     4    35    25    1
     5    25    26   ar
     6    26    27   ar
     7    27    28   ar
     8    28    29   ar
     9    29    30   ar
    10    30    31   ar
    11    31    32   ar
    12    32    33   ar
    13    33    34   ar
    14    34    23    1
    15    23     1    1
    16     1     2    2
    17     1     3    2
    18     1     4    1
    19     4     5   ar
    20     5     6   ar
    21     6     7   ar
    22     7    10    1
    23    10    11    1
    24    11    12    1
    25    12    13    1
    26    14    13    1
    27    14    15    1
    28    16    15    1
    29    16    17    1
    30    17    18    1
    31    19    18    1
    32    19    20    1
    33    19    21    1
    34    21    22    1
    35     7     8   ar
    36     8     9   ar
    37    34    25   ar
    38     9     4   ar
    39    33    28   ar
    40    20    14    1
    41    21    16    1
    42    23    24    1
@<TRIPOS>MOLECULE
*****
 38 42 0 0 0
SMALL
GASTEIGER

@<TRIPOS>ATOM
      1 S         143.0209  140.9114  164.7224 S.O2    1  UNL1        0.0736
      2 O         143.2264  139.5710  164.0813 O.2     1  UNL1       -0.1499
      3 O         142.8154  142.2518  165.3635 O.2     1  UNL1       -0.1499
      4 C         142.9657  141.5513  163.3669 C.ar    1  UNL1        0.1251
      5 C         142.4290  140.7826  162.1960 C.ar    1  UNL1        0.0199
      6 C         142.3737  141.4224  160.8404 C.ar    1  UNL1       -0.0029
      7 C         142.8552  142.8310  160.6558 C.ar    1  UNL1       -0.0220
      8 C         143.3918  143.5998  161.8268 C.ar    1  UNL1       -0.0029
      9 C         143.4471  142.9599  163.1823 C.ar    1  UNL1        0.0199
     10 C         142.7999  143.4709  159.3003 C.3     1  UNL1        0.0289
     11 C         141.5222  144.0882  158.8138 C.3     1  UNL1        0.0367
     12 C         141.0152  145.3539  159.4388 C.3     1  UNL1        0.1424
     13 O         139.7557  145.3359  160.2532 O.3     1  UNL1       -0.3561
     14 C         139.7498  144.6993  161.6115 C.3     1  UNL1        0.1179
     15 C         139.2775  143.2850  161.7749 C.3     1  UNL1        0.0455
     16 C         139.2717  142.6485  163.1331 C.3     1  UNL1        0.0600
     17 C         139.4336  142.4342  164.6089 C.3     1  UNL1        0.0174
     18 C         139.9756  143.6998  165.2044 C.3     1  UNL1        0.0174
     19 C         140.1487  144.6963  164.0966 C.3     1  UNL1        0.0600
     20 C         140.2163  145.4770  162.8063 C.3     1  UNL1        0.0455
     21 N         139.7136  144.0465  162.8165 N.3     1  UNL1       -0.2739
     22 C         139.7863  144.5375  162.1927 C.3     1  UNL1        0.0896
     23 N         143.0761  140.2715  166.0780 N.pl3   1  UNL1       -0.2153
     24 H         143.8892  139.7965  166.3654 H       1  UNL1        0.1737
     25 C         140.6087  139.6725  166.6283 C.ar    1  UNL1       -0.0075
     26 C         139.4252  139.7564  167.5460 C.ar    1  UNL1       -0.0015
     27 C         139.5255  140.5232  168.8312 C.ar    1  UNL1        0.0189
     28 C         140.8095  141.2063  169.1987 C.ar    1  UNL1        0.0825
     29 N         140.9098  141.9731  170.4839 N.ar    1  UNL1       -0.2438
     30 C         142.1937  142.6561  170.8514 C.ar    1  UNL1        0.0988
     31 C         143.3773  142.5722  169.9337 C.ar    1  UNL1        0.0207
     32 C         143.2769  141.8053  168.6485 C.ar    1  UNL1        0.0044
     33 C         141.9930  141.1224  168.2810 C.ar    1  UNL1        0.0320
     34 C         141.8926  140.3554  166.9957 C.ar    1  UNL1        0.0622
     35 C         140.5083  138.9055  165.3430 C.3     1  UNL1        0.0276
     36 C         138.5005  139.0338  163.6991 C.3     1  UNL1        0.0003
     37 C         139.1772  138.3957  164.8759 C.3     1  UNL1        0.0044
     38 C         138.5227  137.2476  165.5857 C.3     1  UNL1        0.0003
@<TRIPOS>BOND
     1    36    37    1
     2    37    38    1
     3    37    35    1
     4    35    25    1
     5    25    26   ar
     6    26    27   ar
     7    27    28   ar
     8    28    29   ar
     9    29    30   ar
    10    30    31   ar
    11    31    32   ar
    12    32    33   ar
    13    33    34   ar
    14    34    23    1
    15    23     1    1
    16     1     2    2
    17     1     3    2
    18     1     4    1
    19     4     5   ar
    20     5     6   ar
    21     6     7   ar
    22     7    10    1
    23    10    11    1
    24    11    12    1
    25    12    13    1
    26    14    13    1
    27    14    15    1
    28    16    15    1
    29    16    17    1
    30    17    18    1
    31    19    18    1
    32    19    20    1
    33    19    21    1
    34    21    22    1
    35     7     8   ar
    36     8     9   ar
    37    34    25   ar
    38     9     4   ar
    39    33    28   ar
    40    20    14    1
    41    21    16    1
    42    23    24    1
@<TRIPOS>MOLECULE
*****
 38 42 0 0 0
SMALL
GASTEIGER

@<TRIPOS>ATOM
      1 S         139.5950  140.2507  163.5900 S.O2    1  UNL1        0.0736
      2 O         140.7973  140.9946  164.0910 O.2     1  UNL1       -0.1499
      3 O         138.3927  139.5067  163.0890 O.2     1  UNL1       -0.1499
      4 C         139.6559  141.0189  162.3032 C.ar    1  UNL1        0.1251
      5 C         140.9699  141.5417  161.8033 C.ar    1  UNL1        0.0199
      6 C         141.0309  142.3100  160.5164 C.ar    1  UNL1       -0.0029
      7 C         139.7777  142.5555  159.7294 C.ar    1  UNL1       -0.0220
      8 C         138.4636  142.0327  160.2294 C.ar    1  UNL1       -0.0029
      9 C         138.4027  141.2645  161.5162 C.ar    1  UNL1        0.0199
     10 C         139.8385  143.3238  158.4426 C.3     1  UNL1        0.0289
     11 C         140.0200  144.8126  158.4658 C.3     1  UNL1        0.0367
     12 C         140.6018  145.4785  159.6774 C.3     1  UNL1        0.1424
     13 O         139.6954  146.0462  160.7291 O.3     1  UNL1       -0.3561
     14 C         139.5691  145.3632  162.0587 C.3     1  UNL1        0.1179
     15 C         140.7694  145.2241  162.9474 C.3     1  UNL1        0.0455
     16 C         140.6431  144.5411  164.2769 C.3     1  UNL1        0.0600
     17 C         140.0721  143.8194  165.4614 C.3     1  UNL1        0.0174
     18 C         138.6131  143.5857  165.2027 C.3     1  UNL1        0.0174
     19 C         138.2825  144.1630  163.8583 C.3     1  UNL1        0.0600
     20 C         138.2425  144.8193  162.4994 C.3     1  UNL1        0.0455
     21 N         139.5370  144.7535  163.2861 N.3     1  UNL1       -0.2739
     22 C         139.4146  145.0757  162.5673 C.3     1  UNL1        0.0896
     23 N         139.5341  139.4823  164.8769 N.pl3   1  UNL1       -0.2153
     24 H         138.6701  139.1484  165.2104 H       1  UNL1        0.1737
     25 C         141.8210  138.2738  165.1212 C.ar    1  UNL1       -0.0075
     26 C         143.0765  138.0143  165.8998 C.ar    1  UNL1       -0.0015
     27 C         143.3006  138.7038  167.2130 C.ar    1  UNL1        0.0189
     28 C         142.2692  139.6528  167.7475 C.ar    1  UNL1        0.0825
     29 N         142.4934  140.3423  169.0606 N.ar    1  UNL1       -0.2438
     30 C         141.4620  141.2913  169.5950 C.ar    1  UNL1        0.0988
     31 C         140.2065  141.5508  168.8164 C.ar    1  UNL1        0.0207
     32 C         139.9824  140.8613  167.5032 C.ar    1  UNL1        0.0044
     33 C         141.0137  139.9123  166.9688 C.ar    1  UNL1        0.0320
     34 C         140.7896  139.2228  165.6556 C.ar    1  UNL1        0.0622
     35 C         141.5968  137.5843  163.8080 C.3     1  UNL1        0.0276
     36 C         141.5883  137.9446  161.2350 C.3     1  UNL1        0.0003
     37 C         142.2611  138.1014  162.5664 C.3     1  UNL1        0.0044
     38 C         143.5983  138.7752  162.6563 C.3     1  UNL1        0.0003
@<TRIPOS>BOND
     1    36    37    1
     2    37    38    1
     3    37    35    1
     4    35    25    1
     5    25    26   ar
     6    26    27   ar
     7    27    28   ar
     8    28    29   ar
     9    29    30   ar
    10    30    31   ar
    11    31    32   ar
    12    32    33   ar
    13    33    34   ar
    14    34    23    1
    15    23     1    1
    16     1     2    2
    17     1     3    2
    18     1     4    1
    19     4     5   ar
    20     5     6   ar
    21     6     7   ar
    22     7    10    1
    23    10    11    1
    24    11    12    1
    25    12    13    1
    26    14    13    1
    27    14    15    1
    28    16    15    1
    29    16    17    1
    30    17    18    1
    31    19    18    1
    32    19    20    1
    33    19    21    1
    34    21    22    1
    35     7     8   ar
    36     8     9   ar
    37    34    25   ar
    38     9     4   ar
    39    33    28   ar
    40    20    14    1
    41    21    16    1
    42    23    24    1
@<TRIPOS>MOLECULE
*****
 38 42 0 0 0
SMALL
GASTEIGER

@<TRIPOS>ATOM
      1 S         143.4599  141.5949  164.0440 S.O2    1  UNL1        0.0736
      2 O         144.2681  142.7087  164.6408 O.2     1  UNL1       -0.1499
      3 O         142.6517  140.4811  163.4472 O.2     1  UNL1       -0.1499
      4 C         143.1783  141.0631  165.4180 C.ar    1  UNL1        0.1251
      5 C         143.1331  141.9986  166.5896 C.ar    1  UNL1        0.0199
      6 C         142.8514  141.4667  167.9636 C.ar    1  UNL1       -0.0029
      7 C         142.6150  139.9994  168.1659 C.ar    1  UNL1       -0.0220
      8 C         142.6602  139.0638  166.9942 C.ar    1  UNL1       -0.0029
      9 C         142.9418  139.5957  165.6203 C.ar    1  UNL1        0.0199
     10 C         142.3333  139.4675  169.5399 C.3     1  UNL1        0.0289
     11 C         141.0205  139.7613  170.2033 C.3     1  UNL1        0.0367
     12 C         139.9027  140.3767  169.4147 C.3     1  UNL1        0.1424
     13 O         139.0149  139.5108  168.5710 O.3     1  UNL1       -0.3561
     14 C         138.9997  139.6794  167.0806 C.3     1  UNL1        0.1179
     15 C         139.4821  140.9596  166.4656 C.3     1  UNL1        0.0455
     16 C         139.4669  141.1281  164.9752 C.3     1  UNL1        0.0600
     17 C         139.2776  140.8616  163.5113 C.3     1  UNL1        0.0174
     18 C         138.7118  139.4805  163.3608 C.3     1  UNL1        0.0174
     19 C         138.5514  138.8935  164.7319 C.3     1  UNL1        0.0600
     20 C         138.5021  138.5676  166.2051 C.3     1  UNL1        0.0455
     21 N         139.0181  139.9118  165.7296 N.3     1  UNL1       -0.2739
     22 C         138.9532  139.6473  166.4788 C.3     1  UNL1        0.0896
     23 N         143.7415  142.1268  162.6700 N.pl3   1  UNL1       -0.2153
     24 H         144.6643  142.3467  162.4069 H       1  UNL1        0.1737
     25 C         142.6226  141.5932  160.3867 C.ar    1  UNL1       -0.0075
     26 C         141.4982  141.7899  159.4136 C.ar    1  UNL1       -0.0015
     27 C         140.3681  142.7169  159.7507 C.ar    1  UNL1        0.0189
     28 C         140.3625  143.4472  161.0610 C.ar    1  UNL1        0.0825
     29 N         139.2324  144.3741  161.3981 N.ar    1  UNL1       -0.2438
     30 C         139.2268  145.1044  162.7083 C.ar    1  UNL1        0.0988
     31 C         140.3513  144.9077  163.6814 C.ar    1  UNL1        0.0207
     32 C         141.4814  143.9807  163.3443 C.ar    1  UNL1        0.0044
     33 C         141.4869  143.2505  162.0341 C.ar    1  UNL1        0.0320
     34 C         142.6170  142.3235  161.6969 C.ar    1  UNL1        0.0622
     35 C         143.7527  140.6662  160.0495 C.3     1  UNL1        0.0276
     36 C         142.8123  138.5076  158.9514 C.3     1  UNL1        0.0003
     37 C         143.5388  139.1818  160.0772 C.3     1  UNL1        0.0044
     38 C         144.0515  138.3716  161.2308 C.3     1  UNL1        0.0003
@<TRIPOS>BOND
     1    36    37    1
     2    37    38    1
     3    37    35    1
     4    35    25    1
     5    25    26   ar
     6    26    27   ar
     7    27    28   ar
     8    28    29   ar
     9    29    30   ar
    10    30    31   ar
    11    31    32   ar
    12    32    33   ar
    13    33    34   ar
    14    34    23    1
    15    23     1    1
    16     1     2    2
    17     1     3    2
    18     1     4    1
    19     4     5   ar
    20     5     6   ar
    21     6     7   ar
    22     7    10    1
    23    10    11    1
    24    11    12    1
    25    12    13    1
    26    14    13    1
    27    14    15    1
    28    16    15    1
    29    16    17    1
    30    17    18    1
    31    19    18    1
    32    19    20    1
    33    19    21    1
    34    21    22    1
    35     7     8   ar
    36     8     9   ar
    37    34    25   ar
    38     9     4   ar
    39    33    28   ar
    40    20    14    1
    41    21    16    1
    42    23    24    1
@<TRIPOS>MOLECULE
*****
 38 42 0 0 0
SMALL
GASTEIGER

@<TRIPOS>ATOM
      1 S         140.4953  142.4468  164.5628 S.O2    1  UNL1        0.0736
      2 O         139.7429  141.2232  164.9947 O.2     1  UNL1       -0.1499
      3 O         141.2476  143.6705  164.1308 O.2     1  UNL1       -0.1499
      4 C         139.9365  142.3017  163.1784 C.ar    1  UNL1        0.1251
      5 C         140.7569  142.7124  161.9917 C.ar    1  UNL1        0.0199
      6 C         140.1981  142.5673  160.6071 C.ar    1  UNL1       -0.0029
      7 C         138.8191  142.0114  160.4094 C.ar    1  UNL1       -0.0220
      8 C         137.9987  141.6006  161.5962 C.ar    1  UNL1       -0.0029
      9 C         138.5574  141.7458  162.9806 C.ar    1  UNL1        0.0199
     10 C         138.2603  141.8662  159.0250 C.3     1  UNL1        0.0289
     11 C         138.4818  140.5974  158.2560 C.3     1  UNL1        0.0367
     12 C         139.4217  139.5546  158.7843 C.3     1  UNL1        0.1424
     13 O         138.8929  138.4133  159.6014 O.3     1  UNL1       -0.3561
     14 C         139.3749  138.2109  161.0074 C.3     1  UNL1        0.1179
     15 C         138.3859  138.0390  162.1219 C.3     1  UNL1        0.0455
     16 C         138.8679  137.8366  163.5278 C.3     1  UNL1        0.0600
     17 C         139.7653  137.6693  164.7181 C.3     1  UNL1        0.0174
     18 C         141.1857  137.7510  164.2429 C.3     1  UNL1        0.0174
     19 C         141.1662  137.9687  162.7589 C.3     1  UNL1        0.0600
     20 C         140.8461  138.1804  161.2988 C.3     1  UNL1        0.0455
     21 N         139.7337  138.0216  162.3170 N.3     1  UNL1       -0.2739
     22 C         139.6678  138.1365  161.5309 C.3     1  UNL1        0.0896
     23 N         141.0540  142.5921  165.9473 N.pl3   1  UNL1       -0.2153
     24 H         141.0273  143.4660  166.3998 H       1  UNL1        0.1737
     25 C         142.7715  140.6432  165.9950 C.ar    1  UNL1       -0.0075
     26 C         143.3710  139.4568  166.6901 C.ar    1  UNL1       -0.0015
     27 C         142.8528  139.0330  168.0323 C.ar    1  UNL1        0.0189
     28 C         141.7349  139.7955  168.6796 C.ar    1  UNL1        0.0825
     29 N         141.2166  139.3716  170.0219 N.ar    1  UNL1       -0.2438
     30 C         140.0988  140.1341  170.6691 C.ar    1  UNL1        0.0988
     31 C         139.4992  141.3205  169.9741 C.ar    1  UNL1        0.0207
     32 C         140.0175  141.7443  168.6319 C.ar    1  UNL1        0.0044
     33 C         141.1353  140.9818  167.9846 C.ar    1  UNL1        0.0320
     34 C         141.6536  141.4057  166.6423 C.ar    1  UNL1        0.0622
     35 C         143.2898  141.0670  164.6527 C.3     1  UNL1        0.0276
     36 C         145.7188  141.4468  163.8127 C.3     1  UNL1        0.0003
     37 C         144.5118  141.9319  164.5596 C.3     1  UNL1        0.0044
     38 C         144.5268  143.2819  165.2133 C.3     1  UNL1        0.0003
@<TRIPOS>BOND
     1    36    37    1
     2    37    38    1
     3    37    35    1
     4    35    25    1
     5    25    26   ar
     6    26    27   ar
     7    27    28   ar
     8    28    29   ar
     9    29    30   ar
    10    30    31   ar
    11    31    32   ar
    12    32    33   ar
    13    33    34   ar
    14    34    23    1
    15    23     1    1
    16     1     2    2
    17     1     3    2
    18     1     4    1
    19     4     5   ar
    20     5     6   ar
    21     6     7   ar
    22     7    10    1
    23    10    11    1
    24    11    12    1
    25    12    13    1
    26    14    13    1
    27    14    15    1
    28    16    15    1
    29    16    17    1
    30    17    18    1
    31    19    18    1
    32    19    20    1
    33    19    21    1
    34    21    22    1
    35     7     8   ar
    36     8     9   ar
    37    34    25   ar
    38     9     4   ar
    39    33    28   ar
    40    20    14    1
    41    21    16    1
    42    23    24    1
@<TRIPOS>MOLECULE
*****
 38 42 0 0 0
SMALL
GASTEIGER

@<TRIPOS>ATOM
      1 S         142.0044  140.0813  164.6167 S.O2    1  UNL1        0.0736
      2 O         142.4246  138.7109  164.1748 O.2     1  UNL1       -0.1499
      3 O         141.5842  141.4517  165.0586 O.2     1  UNL1       -0.1499
      4 C         141.6910  140.4436  163.1953 C.ar    1  UNL1        0.1251
      5 C         142.2740  139.6404  162.0706 C.ar    1  UNL1        0.0199
      6 C         141.9606  140.0027  160.6491 C.ar    1  UNL1       -0.0029
      7 C         141.0642  141.1681  160.3523 C.ar    1  UNL1       -0.0220
      8 C         140.4811  141.9713  161.4771 C.ar    1  UNL1       -0.0029
      9 C         140.7945  141.6091  162.8985 C.ar    1  UNL1        0.0199
     10 C         140.7508  141.5304  158.9309 C.3     1  UNL1        0.0289
     11 C         141.4967  142.6450  158.2590 C.3     1  UNL1        0.0367
     12 C         142.8920  142.9826  158.6937 C.3     1  UNL1        0.1424
     13 O         143.1132  143.9206  159.8431 O.3     1  UNL1       -0.3561
     14 C         143.7308  143.4171  161.1140 C.3     1  UNL1        0.1179
     15 C         143.3792  144.0578  162.4239 C.3     1  UNL1        0.0455
     16 C         143.9968  143.5543  163.6947 C.3     1  UNL1        0.0600
     17 C         144.8197  142.7570  164.6627 C.3     1  UNL1        0.0174
     18 C         145.5823  141.7265  163.8839 C.3     1  UNL1        0.0174
     19 C         145.2306  141.8869  162.4346 C.3     1  UNL1        0.0600
     20 C         144.6999  142.2729  161.0750 C.3     1  UNL1        0.0455
     21 N         144.2507  143.0166  162.3177 N.3     1  UNL1       -0.2739
     22 C         144.0303  143.1437  161.5622 C.3     1  UNL1        0.0896
     23 N         142.3178  139.7191  166.0382 N.pl3   1  UNL1       -0.2153
     24 H         143.1626  139.2623  166.2550 H       1  UNL1        0.1737
     25 C         139.9608  139.4735  167.1031 C.ar    1  UNL1       -0.0075
     26 C         138.9871  139.8072  168.1942 C.ar    1  UNL1       -0.0015
     27 C         139.3968  140.7202  169.3116 C.ar    1  UNL1        0.0189
     28 C         140.7802  141.2996  169.3379 C.ar    1  UNL1        0.0825
     29 N         141.1898  142.2126  170.4552 N.ar    1  UNL1       -0.2438
     30 C         142.5732  142.7919  170.4815 C.ar    1  UNL1        0.0988
     31 C         143.5469  142.4582  169.3903 C.ar    1  UNL1        0.0207
     32 C         143.1372  141.5451  168.2730 C.ar    1  UNL1        0.0044
     33 C         141.7539  140.9659  168.2467 C.ar    1  UNL1        0.0320
     34 C         141.3441  140.0528  167.1293 C.ar    1  UNL1        0.0622
     35 C         139.5511  138.5604  165.9857 C.3     1  UNL1        0.0276
     36 C         138.0697  140.4218  164.9414 C.3     1  UNL1        0.0003
     37 C         138.7686  139.0997  164.8252 C.3     1  UNL1        0.0044
     38 C         138.6850  138.3168  163.5484 C.3     1  UNL1        0.0003
@<TRIPOS>BOND
     1    36    37    1
     2    37    38    1
     3    37    35    1
     4    35    25    1
     5    25    26   ar
     6    26    27   ar
     7    27    28   ar
     8    28    29   ar
     9    29    30   ar
    10    30    31   ar
    11    31    32   ar
    12    32    33   ar
    13    33    34   ar
    14    34    23    1
    15    23     1    1
    16     1     2    2
    17     1     3    2
    18     1     4    1
    19     4     5   ar
    20     5     6   ar
    21     6     7   ar
    22     7    10    1
    23    10    11    1
    24    11    12    1
    25    12    13    1
    26    14    13    1
    27    14    15    1
    28    16    15    1
    29    16    17    1
    30    17    18    1
    31    19    18    1
    32    19    20    1
    33    19    21    1
    34    21    22    1
    35     7     8   ar
    36     8     9   ar
    37    34    25   ar
    38     9     4   ar
    39    33    28   ar
    40    20    14    1
    41    21    16    1
    42    23    24    1
@<TRIPOS>MOLECULE
*****
 38 42 0 0 0
SMALL
GASTEIGER

@<TRIPOS>ATOM
      1 S         142.4230  142.0270  164.2989 S.O2    1  UNL1        0.0736
      2 O         141.9561  143.3405  163.7451 O.2     1  UNL1       -0.1499
      3 O         142.8899  140.7135  164.8527 O.2     1  UNL1       -0.1499
      4 C         142.7786  141.5700  162.9152 C.ar    1  UNL1        0.1251
      5 C         144.0087  140.7412  162.6920 C.ar    1  UNL1        0.0199
      6 C         144.3643  140.2841  161.3083 C.ar    1  UNL1       -0.0029
      7 C         143.4898  140.6560  160.1477 C.ar    1  UNL1       -0.0220
      8 C         142.2596  141.4849  160.3709 C.ar    1  UNL1       -0.0029
      9 C         141.9041  141.9419  161.7546 C.ar    1  UNL1        0.0199
     10 C         143.8454  140.1991  158.7640 C.3     1  UNL1        0.0289
     11 C         143.0218  139.1432  158.0880 C.3     1  UNL1        0.0367
     12 C         142.3048  138.1119  158.9080 C.3     1  UNL1        0.1424
     13 O         140.9390  138.4051  159.4544 O.3     1  UNL1       -0.3561
     14 C         140.6434  138.1622  160.9048 C.3     1  UNL1        0.1179
     15 C         139.2292  138.2179  161.4015 C.3     1  UNL1        0.0455
     16 C         138.9336  137.9750  162.8519 C.3     1  UNL1        0.0600
     17 C         139.1044  137.6808  164.3128 C.3     1  UNL1        0.0174
     18 C         140.5668  137.4761  164.5766 C.3     1  UNL1        0.0174
     19 C         141.2998  137.6439  163.2787 C.3     1  UNL1        0.0600
     20 C         141.7620  137.8635  161.8584 C.3     1  UNL1        0.0455
     21 N         140.2904  137.9523  162.2128 N.3     1  UNL1       -0.2739
     22 C         140.6309  138.0512  161.4988 C.3     1  UNL1        0.0896
     23 N         142.0674  142.4839  165.6827 N.pl3   1  UNL1       -0.2153
     24 H         142.3986  143.3492  166.0157 H       1  UNL1        0.1737
     25 C         139.9225  141.0593  166.0281 C.ar    1  UNL1       -0.0075
     26 C         139.0623  140.1978  166.9045 C.ar    1  UNL1       -0.0015
     27 C         139.4869  139.8997  168.3119 C.ar    1  UNL1        0.0189
     28 C         140.7718  140.4629  168.8429 C.ar    1  UNL1        0.0825
     29 N         141.1965  140.1647  170.2503 N.ar    1  UNL1       -0.2438
     30 C         142.4813  140.7280  170.7813 C.ar    1  UNL1        0.0988
     31 C         143.3414  141.5894  169.9049 C.ar    1  UNL1        0.0207
     32 C         142.9168  141.8876  168.4975 C.ar    1  UNL1        0.0044
     33 C         141.6320  141.3243  167.9665 C.ar    1  UNL1        0.0320
     34 C         141.2073  141.6225  166.5591 C.ar    1  UNL1        0.0622
     35 C         139.4977  141.3574  164.6207 C.3     1  UNL1        0.0276
     36 C         137.3568  142.2091  163.4204 C.3     1  UNL1        0.0003
     37 C         138.5071  142.4513  164.3520 C.3     1  UNL1        0.0044
     38 C         138.6669  143.7873  165.0151 C.3     1  UNL1        0.0003
@<TRIPOS>BOND
     1    36    37    1
     2    37    38    1
     3    37    35    1
     4    35    25    1
     5    25    26   ar
     6    26    27   ar
     7    27    28   ar
     8    28    29   ar
     9    29    30   ar
    10    30    31   ar
    11    31    32   ar
    12    32    33   ar
    13    33    34   ar
    14    34    23    1
    15    23     1    1
    16     1     2    2
    17     1     3    2
    18     1     4    1
    19     4     5   ar
    20     5     6   ar
    21     6     7   ar
    22     7    10    1
    23    10    11    1
    24    11    12    1
    25    12    13    1
    26    14    13    1
    27    14    15    1
    28    16    15    1
    29    16    17    1
    30    17    18    1
    31    19    18    1
    32    19    20    1
    33    19    21    1
    34    21    22    1
    35     7     8   ar
    36     8     9   ar
    37    34    25   ar
    38     9     4   ar
    39    33    28   ar
    40    20    14    1
    41    21    16    1
    42    23    24    1
@<TRIPOS>MOLECULE
*****
 38 42 0 0 0
SMALL
GASTEIGER

@<TRIPOS>ATOM
      1 S         140.2117  140.4168  164.0734 S.O2    1  UNL1        0.0736
      2 O         139.6469  141.6114  164.7832 O.2     1  UNL1       -0.1499
      3 O         140.7766  139.2223  163.3636 O.2     1  UNL1       -0.1499
      4 C         139.7586  140.9828  162.7603 C.ar    1  UNL1        0.1251
      5 C         138.5893  141.9210  162.7115 C.ar    1  UNL1        0.0199
      6 C         138.1362  142.4871  161.3983 C.ar    1  UNL1       -0.0029
      7 C         138.8524  142.1149  160.1340 C.ar    1  UNL1       -0.0220
      8 C         140.0218  141.1766  160.1829 C.ar    1  UNL1       -0.0029
      9 C         140.4749  140.6106  161.4960 C.ar    1  UNL1        0.0199
     10 C         138.3994  142.6809  158.8209 C.3     1  UNL1        0.0289
     11 C         139.4098  143.0622  157.7799 C.3     1  UNL1        0.0367
     12 C         140.1498  144.3620  157.8936 C.3     1  UNL1        0.1424
     13 O         139.8353  145.3085  159.0139 O.3     1  UNL1       -0.3561
     14 C         140.5286  145.1624  160.3361 C.3     1  UNL1        0.1179
     15 C         141.8075  144.3844  160.4305 C.3     1  UNL1        0.0455
     16 C         142.5007  144.2383  161.7527 C.3     1  UNL1        0.0600
     17 C         142.8273  144.3510  163.2123 C.3     1  UNL1        0.0174
     18 C         141.7506  145.1650  163.8668 C.3     1  UNL1        0.0174
     19 C         140.7587  145.5555  162.8115 C.3     1  UNL1        0.0600
     20 C         139.9428  145.7943  161.5639 C.3     1  UNL1        0.0455
     21 N         141.2222  144.9827  161.5049 N.3     1  UNL1       -0.2739
     22 C         140.7263  145.1627  160.9073 C.3     1  UNL1        0.0896
     23 N         140.6648  139.8508  165.3866 N.pl3   1  UNL1       -0.2153
     24 H         140.4577  138.9164  165.6176 H       1  UNL1        0.1737
     25 C         142.6991  141.3811  165.9058 C.ar    1  UNL1       -0.0075
     26 C         143.4678  142.2387  166.8669 C.ar    1  UNL1       -0.0015
     27 C         142.9707  142.4235  168.2700 C.ar    1  UNL1        0.0189
     28 C         141.7050  141.7507  168.7121 C.ar    1  UNL1        0.0825
     29 N         141.2079  141.9354  170.1152 N.ar    1  UNL1       -0.2438
     30 C         139.9422  141.2627  170.5571 C.ar    1  UNL1        0.0988
     31 C         139.1736  140.4051  169.5960 C.ar    1  UNL1        0.0207
     32 C         139.6706  140.2203  168.1929 C.ar    1  UNL1        0.0044
     33 C         140.9363  140.8931  167.7509 C.ar    1  UNL1        0.0320
     34 C         141.4334  140.7083  166.3477 C.ar    1  UNL1        0.0622
     35 C         143.1962  141.1964  164.5026 C.3     1  UNL1        0.0276
     36 C         145.6307  141.7873  163.8141 C.3     1  UNL1        0.0003
     37 C         144.6156  140.7766  164.2590 C.3     1  UNL1        0.0044
     38 C         145.0197  139.3461  164.4602 C.3     1  UNL1        0.0003
@<TRIPOS>BOND
     1    36    37    1
     2    37    38    1
     3    37    35    1
     4    35    25    1
     5    25    26   ar
     6    26    27   ar
     7    27    28   ar
     8    28    29   ar
     9    29    30   ar
    10    30    31   ar
    11    31    32   ar
    12    32    33   ar
    13    33    34   ar
    14    34    23    1
    15    23     1    1
    16     1     2    2
    17     1     3    2
    18     1     4    1
    19     4     5   ar
    20     5     6   ar
    21     6     7   ar
    22     7    10    1
    23    10    11    1
    24    11    12    1
    25    12    13    1
    26    14    13    1
    27    14    15    1
    28    16    15    1
    29    16    17    1
    30    17    18    1
    31    19    18    1
    32    19    20    1
    33    19    21    1
    34    21    22    1
    35     7     8   ar
    36     8     9   ar
    37    34    25   ar
    38     9     4   ar
    39    33    28   ar
    40    20    14    1
    41    21    16    1
    42    23    24    1
@<TRIPOS>MOLECULE
*****
 38 42 0 0 0
SMALL
GASTEIGER

@<TRIPOS>ATOM
      1 S         141.8040  142.9850  164.6125 S.O2    1  UNL1        0.0736
      2 O         142.6713  141.9111  165.1995 O.2     1  UNL1       -0.1499
      3 O         140.9368  144.0589  164.0256 O.2     1  UNL1       -0.1499
      4 C         142.4631  142.7886  163.2795 C.ar    1  UNL1        0.1251
      5 C         143.9539  142.6471  163.1936 C.ar    1  UNL1        0.0199
      6 C         144.6131  142.4507  161.8605 C.ar    1  UNL1       -0.0029
      7 C         143.7813  142.3958  160.6134 C.ar    1  UNL1       -0.0220
      8 C         142.2904  142.5374  160.6994 C.ar    1  UNL1       -0.0029
      9 C         141.6314  142.7337  162.0324 C.ar    1  UNL1        0.0199
     10 C         144.4404  142.1994  159.2804 C.3     1  UNL1        0.0289
     11 C         144.4080  140.8536  158.6186 C.3     1  UNL1        0.0367
     12 C         143.5043  139.7795  159.1474 C.3     1  UNL1        0.1424
     13 O         144.0395  138.7499  160.0978 O.3     1  UNL1       -0.3561
     14 C         143.3579  138.5176  161.4137 C.3     1  UNL1        0.1179
     15 C         142.0543  137.7774  161.4628 C.3     1  UNL1        0.0455
     16 C         141.3728  137.5452  162.7787 C.3     1  UNL1        0.0600
     17 C         141.0682  137.5471  164.2474 C.3     1  UNL1        0.0174
     18 C         142.1800  138.2679  164.9505 C.3     1  UNL1        0.0174
     19 C         143.1718  138.7114  163.9163 C.3     1  UNL1        0.0600
     20 C         143.9800  139.0258  162.6805 C.3     1  UNL1        0.0455
     21 N         142.6729  138.2648  162.5740 N.3     1  UNL1       -0.2739
     22 C         143.1673  138.4772  161.9859 C.3     1  UNL1        0.0896
     23 N         141.1449  143.1814  165.9456 N.pl3   1  UNL1       -0.2153
     24 H         141.1173  144.0768  166.3540 H       1  UNL1        0.1737
     25 C         139.6401  141.0638  165.9082 C.ar    1  UNL1       -0.0075
     26 C         139.0230  139.8960  166.6190 C.ar    1  UNL1       -0.0015
     27 C         139.2935  139.6779  168.0782 C.ar    1  UNL1        0.0189
     28 C         140.1812  140.6276  168.8266 C.ar    1  UNL1        0.0825
     29 N         140.4517  140.4095  170.2857 N.ar    1  UNL1       -0.2438
     30 C         141.3394  141.3593  171.0340 C.ar    1  UNL1        0.0988
     31 C         141.9565  142.5271  170.3232 C.ar    1  UNL1        0.0207
     32 C         141.6860  142.7452  168.8640 C.ar    1  UNL1        0.0044
     33 C         140.7983  141.7955  168.1157 C.ar    1  UNL1        0.0320
     34 C         140.5278  142.0136  166.6565 C.ar    1  UNL1        0.0622
     35 C         139.3695  141.2819  164.4489 C.3     1  UNL1        0.0276
     36 C         137.6816  143.2474  164.6428 C.3     1  UNL1        0.0003
     37 C         138.1000  141.9518  164.0135 C.3     1  UNL1        0.0044
     38 C         137.2488  141.3259  162.9486 C.3     1  UNL1        0.0003
@<TRIPOS>BOND
     1    36    37    1
     2    37    38    1
     3    37    35    1
     4    35    25    1
     5    25    26   ar
     6    26    27   ar
     7    27    28   ar
     8    28    29   ar
     9    29    30   ar
    10    30    31   ar
    11    31    32   ar
    12    32    33   ar
    13    33    34   ar
    14    34    23    1
    15    23     1    1
    16     1     2    2
    17     1     3    2
    18     1     4    1
    19     4     5   ar
    20     5     6   ar
    21     6     7   ar
    22     7    10    1
    23    10    11    1
    24    11    12    1
    25    12    13    1
    26    14    13    1
    27    14    15    1
    28    16    15    1
    29    16    17    1
    30    17    18    1
    31    19    18    1
    32    19    20    1
    33    19    21    1
    34    21    22    1
    35     7     8   ar
    36     8     9   ar
    37    34    25   ar
    38     9     4   ar
    39    33    28   ar
    40    20    14    1
    41    21    16    1
    42    23    24    1
