@<TRIPOS>MOLECULE
*****
 30 33 0 0 0
SMALL
GASTEIGER

@<TRIPOS>ATOM
      1 C         141.3661  141.0505  165.4104 C.ar    1  UNL1        0.0478
      2 C         142.5047  141.1922  166.3766 C.ar    1  UNL1        0.0140
      3 C         143.3937  142.3989  166.3164 C.ar    1  UNL1        0.0012
      4 C         143.1441  143.4639  165.2901 C.ar    1  UNL1        0.0001
      5 C         142.0055  143.3222  164.3238 C.ar    1  UNL1        0.0012
      6 C         141.1165  142.1155  164.3840 C.ar    1  UNL1        0.0134
      7 N         137.3013  138.5541  167.4707 N.3     1  UNL1       -0.3208
      8 C         138.4447  138.5957  166.5007 C.3     1  UNL1        0.0709
      9 C         138.6991  137.4306  165.5909 C.3     1  UNL1        0.0190
     10 C         139.8425  137.4721  164.6209 C.3     1  UNL1        0.0228
     11 C         140.7315  138.6787  164.5607 C.3     1  UNL1        0.0909
     12 N         140.4771  139.8438  165.4705 N.pl3   1  UNL1       -0.3061
     13 C         139.3337  139.8023  166.4405 C.3     1  UNL1        0.1062
     14 H         136.8072  137.6668  167.3761 H       1  UNL1        0.1189
     15 H         136.6603  139.3228  167.2739 H       1  UNL1        0.1189
     16 C         142.7543  140.1272  167.4030 C.2     1  UNL1        0.0124
     17 C         142.2895  140.3234  168.8157 C.2     1  UNL1        0.0873
     18 S         141.5662  141.5252  169.3470 S.3     1  UNL1       -0.0254
     19 C         141.2961  141.2968  170.8047 C.2     1  UNL1        0.2832
     20 O         140.5931  142.2448  171.7302 O.2     1  UNL1       -0.2622
     21 N         141.8527  139.9537  171.1743 N.am    1  UNL1       -0.2425
     22 C         142.4666  139.3521  169.9449 C.2     1  UNL1        0.2583
     23 O         143.1395  138.0142  169.8599 O.2     1  UNL1       -0.2692
     24 H         141.8206  139.5397  172.0670 H       1  UNL1        0.1587
     25 C         139.9779  141.9738  163.4178 C.ar    1  UNL1        0.0043
     26 C         138.5917  142.3737  163.8283 C.ar    1  UNL1        0.0207
     27 C         137.4531  142.2321  162.8622 C.ar    1  UNL1        0.0989
     28 N         137.7007  141.6905  161.4855 N.ar    1  UNL1       -0.2423
     29 C         139.0869  141.2906  161.0750 C.ar    1  UNL1        0.0989
     30 C         140.2255  141.4323  162.0411 C.ar    1  UNL1        0.0207
@<TRIPOS>BOND
     1     8     7    1
     2     8     9    1
     3     9    10    1
     4    10    11    1
     5    11    12    1
     6    12     1    1
     7     1     2   ar
     8     2    16    1
     9    16    17    2
    10    17    18    1
    11    18    19    1
    12    19    20    2
    13    19    21   am
    14    21    22   am
    15    22    23    2
    16     2     3   ar
    17     3     4   ar
    18     4     5   ar
    19     5     6   ar
    20     6    25    1
    21    25    26   ar
    22    26    27   ar
    23    27    28   ar
    24    28    29   ar
    25    29    30   ar
    26    12    13    1
    27    13     8    1
    28     6     1   ar
    29    30    25   ar
    30    22    17    1
    31     7    14    1
    32     7    15    1
    33    21    24    1
@<TRIPOS>MOLECULE
*****
 30 33 0 0 0
SMALL
GASTEIGER

@<TRIPOS>ATOM
      1 C         141.5806  140.7693  165.1870 C.ar    1  UNL1        0.0478
      2 C         141.6099  139.7663  166.3019 C.ar    1  UNL1        0.0140
      3 C         142.8177  138.8987  166.4988 C.ar    1  UNL1        0.0012
      4 C         143.9961  139.0342  165.5806 C.ar    1  UNL1        0.0001
      5 C         143.9667  140.0373  164.4656 C.ar    1  UNL1        0.0012
      6 C         142.7590  140.9048  164.2689 C.ar    1  UNL1        0.0134
      7 N         136.8310  141.4883  163.2060 N.3     1  UNL1       -0.3208
      8 C         137.9980  141.9963  163.9997 C.3     1  UNL1        0.0709
      9 C         137.9573  143.3718  164.5965 C.3     1  UNL1        0.0190
     10 C         139.1244  143.8798  165.3902 C.3     1  UNL1        0.0228
     11 C         140.3321  143.0124  165.5870 C.3     1  UNL1        0.0909
     12 N         140.3728  141.6369  164.9902 N.pl3   1  UNL1       -0.3061
     13 C         139.2058  141.1288  164.1965 C.3     1  UNL1        0.1062
     14 H         136.1044  142.2034  163.1741 H       1  UNL1        0.1189
     15 H         136.4605  140.6465  163.6470 H       1  UNL1        0.1189
     16 C         140.4315  139.6308  167.2201 C.2     1  UNL1        0.0124
     17 C         140.4215  140.3469  168.5381 C.2     1  UNL1        0.0873
     18 S         141.5116  141.2288  169.0707 S.3     1  UNL1       -0.0254
     19 C         141.0834  141.7338  170.4167 C.2     1  UNL1        0.2832
     20 O         141.8715  142.6480  171.3070 O.2     1  UNL1       -0.2622
     21 N         139.7284  141.1639  170.7160 N.am    1  UNL1       -0.2425
     22 C         139.3193  140.3067  169.5549 C.2     1  UNL1        0.2583
     23 O         138.0339  139.5434  169.4322 O.2     1  UNL1       -0.2692
     24 H         139.2004  141.3242  171.5313 H       1  UNL1        0.1587
     25 C         142.7296  141.9078  163.1539 C.ar    1  UNL1        0.0043
     26 C         143.2718  143.2891  163.3732 C.ar    1  UNL1        0.0207
     27 C         143.2424  144.2922  162.2584 C.ar    1  UNL1        0.0989
     28 N         142.6709  143.9139  160.9241 N.ar    1  UNL1       -0.2423
     29 C         142.1287  142.5326  160.7048 C.ar    1  UNL1        0.0989
     30 C         142.1581  141.5296  161.8196 C.ar    1  UNL1        0.0207
@<TRIPOS>BOND
     1     8     7    1
     2     8     9    1
     3     9    10    1
     4    10    11    1
     5    11    12    1
     6    12     1    1
     7     1     2   ar
     8     2    16    1
     9    16    17    2
    10    17    18    1
    11    18    19    1
    12    19    20    2
    13    19    21   am
    14    21    22   am
    15    22    23    2
    16     2     3   ar
    17     3     4   ar
    18     4     5   ar
    19     5     6   ar
    20     6    25    1
    21    25    26   ar
    22    26    27   ar
    23    27    28   ar
    24    28    29   ar
    25    29    30   ar
    26    12    13    1
    27    13     8    1
    28     6     1   ar
    29    30    25   ar
    30    22    17    1
    31     7    14    1
    32     7    15    1
    33    21    24    1
@<TRIPOS>MOLECULE
*****
 30 33 0 0 0
SMALL
GASTEIGER

@<TRIPOS>ATOM
      1 C         141.0231  140.8624  164.8921 C.ar    1  UNL1        0.0478
      2 C         141.6556  140.5486  166.2155 C.ar    1  UNL1        0.0140
      3 C         142.3070  139.2159  166.4383 C.ar    1  UNL1        0.0012
      4 C         142.3259  138.1970  165.3376 C.ar    1  UNL1        0.0001
      5 C         141.6934  138.5108  164.0142 C.ar    1  UNL1        0.0012
      6 C         141.0420  139.8434  163.7914 C.ar    1  UNL1        0.0134
      7 N         141.3372  145.8336  163.4129 N.3     1  UNL1       -0.3208
      8 C         140.5287  144.6807  163.9297 C.3     1  UNL1        0.0709
      9 C         139.0688  144.8604  164.2236 C.3     1  UNL1        0.0190
     10 C         138.2604  143.7074  164.7403 C.3     1  UNL1        0.0228
     11 C         138.9117  142.3747  164.9632 C.3     1  UNL1        0.0909
     12 N         140.3716  142.1951  164.6692 N.pl3   1  UNL1       -0.3061
     13 C         141.1801  143.3480  164.1525 C.3     1  UNL1        0.1062
     14 H         140.7390  146.6548  163.3221 H       1  UNL1        0.1189
     15 H         141.7267  145.5942  162.5011 H       1  UNL1        0.1189
     16 C         141.6367  141.5676  167.3161 C.2     1  UNL1        0.0124
     17 C         140.6794  141.4171  168.4611 C.2     1  UNL1        0.0873
     18 S         139.6873  140.3065  168.6408 S.3     1  UNL1       -0.0254
     19 C         138.9409  140.5538  169.9182 C.2     1  UNL1        0.2832
     20 O         137.8545  139.6895  170.4860 O.2     1  UNL1       -0.2622
     21 N         139.4718  141.8173  170.5281 N.am    1  UNL1       -0.2425
     22 C         140.5463  142.3508  169.6275 C.2     1  UNL1        0.2583
     23 O         141.3469  143.5989  169.8537 O.2     1  UNL1       -0.2692
     24 H         139.1683  142.2248  171.3713 H       1  UNL1        0.1587
     25 C         140.4094  140.1572  162.4679 C.ar    1  UNL1        0.0043
     26 C         141.2231  140.7922  161.3795 C.ar    1  UNL1        0.0207
     27 C         140.5906  141.1060  160.0561 C.ar    1  UNL1        0.0989
     28 N         139.1444  140.7848  159.8211 N.ar    1  UNL1       -0.2423
     29 C         138.3307  140.1498  160.9095 C.ar    1  UNL1        0.0989
     30 C         138.9632  139.8360  162.2330 C.ar    1  UNL1        0.0207
@<TRIPOS>BOND
     1     8     7    1
     2     8     9    1
     3     9    10    1
     4    10    11    1
     5    11    12    1
     6    12     1    1
     7     1     2   ar
     8     2    16    1
     9    16    17    2
    10    17    18    1
    11    18    19    1
    12    19    20    2
    13    19    21   am
    14    21    22   am
    15    22    23    2
    16     2     3   ar
    17     3     4   ar
    18     4     5   ar
    19     5     6   ar
    20     6    25    1
    21    25    26   ar
    22    26    27   ar
    23    27    28   ar
    24    28    29   ar
    25    29    30   ar
    26    12    13    1
    27    13     8    1
    28     6     1   ar
    29    30    25   ar
    30    22    17    1
    31     7    14    1
    32     7    15    1
    33    21    24    1
@<TRIPOS>MOLECULE
*****
 30 33 0 0 0
SMALL
GASTEIGER

@<TRIPOS>ATOM
      1 C         140.8061  141.0494  165.3704 C.ar    1  UNL1        0.0478
      2 C         140.1475  140.9695  166.7157 C.ar    1  UNL1        0.0140
      3 C         139.1859  139.8578  167.0152 C.ar    1  UNL1        0.0012
      4 C         138.8831  138.8260  165.9694 C.ar    1  UNL1        0.0001
      5 C         139.5418  138.9060  164.6241 C.ar    1  UNL1        0.0012
      6 C         140.5032  140.0177  164.3246 C.ar    1  UNL1        0.0134
      7 N         141.7520  145.7888  163.4617 N.3     1  UNL1       -0.3208
      8 C         142.2405  144.5308  164.1165 C.3     1  UNL1        0.0709
      9 C         143.6904  144.3845  164.4719 C.3     1  UNL1        0.0190
     10 C         144.1789  143.1266  165.1268 C.3     1  UNL1        0.0228
     11 C         143.2175  142.0149  165.4263 C.3     1  UNL1        0.0909
     12 N         141.7676  142.1612  165.0709 N.pl3   1  UNL1       -0.3061
     13 C         141.2791  143.4191  164.4161 C.3     1  UNL1        0.1062
     14 H         142.5339  146.4313  163.3339 H       1  UNL1        0.1189
     15 H         141.0449  146.2269  164.0520 H       1  UNL1        0.1189
     16 C         140.4503  142.0013  167.7615 C.2     1  UNL1        0.0124
     17 C         141.3678  141.6679  168.9005 C.2     1  UNL1        0.0873
     18 S         142.0528  140.3524  169.1249 S.3     1  UNL1       -0.0254
     19 C         142.8697  140.4630  170.3780 C.2     1  UNL1        0.2832
     20 O         143.7177  139.3800  170.9760 O.2     1  UNL1       -0.2622
     21 N         142.6897  141.8469  170.9281 N.am    1  UNL1       -0.2425
     22 C         141.7614  142.5916  170.0149 C.2     1  UNL1        0.2583
     23 O         141.3067  144.0107  170.1861 O.2     1  UNL1       -0.2692
     24 H         143.1074  142.2038  171.7450 H       1  UNL1        0.1587
     25 C         141.1619  140.0976  162.9793 C.ar    1  UNL1        0.0043
     26 C         140.4827  140.8196  161.8535 C.ar    1  UNL1        0.0207
     27 C         141.1413  140.8996  160.5082 C.ar    1  UNL1        0.0989
     28 N         142.4791  140.2576  160.2888 N.ar    1  UNL1       -0.2423
     29 C         143.1583  139.5356  161.4146 C.ar    1  UNL1        0.0989
     30 C         142.4997  139.4556  162.7599 C.ar    1  UNL1        0.0207
@<TRIPOS>BOND
     1     8     7    1
     2     8     9    1
     3     9    10    1
     4    10    11    1
     5    11    12    1
     6    12     1    1
     7     1     2   ar
     8     2    16    1
     9    16    17    2
    10    17    18    1
    11    18    19    1
    12    19    20    2
    13    19    21   am
    14    21    22   am
    15    22    23    2
    16     2     3   ar
    17     3     4   ar
    18     4     5   ar
    19     5     6   ar
    20     6    25    1
    21    25    26   ar
    22    26    27   ar
    23    27    28   ar
    24    28    29   ar
    25    29    30   ar
    26    12    13    1
    27    13     8    1
    28     6     1   ar
    29    30    25   ar
    30    22    17    1
    31     7    14    1
    32     7    15    1
    33    21    24    1
@<TRIPOS>MOLECULE
*****
 30 33 0 0 0
SMALL
GASTEIGER

@<TRIPOS>ATOM
      1 C         141.4548  140.3869  165.4748 C.ar    1  UNL1        0.0478
      2 C         141.6317  139.8652  166.8700 C.ar    1  UNL1        0.0140
      3 C         142.8204  139.0147  167.2076 C.ar    1  UNL1        0.0012
      4 C         143.8321  138.6861  166.1500 C.ar    1  UNL1        0.0001
      5 C         143.6551  139.2078  164.7548 C.ar    1  UNL1        0.0012
      6 C         142.4665  140.0583  164.4173 C.ar    1  UNL1        0.0134
      7 N         139.2436  145.0714  165.0665 N.3     1  UNL1       -0.3208
      8 C         139.1606  143.5796  164.9331 C.3     1  UNL1        0.0709
      9 C         137.8891  142.9383  164.4620 C.3     1  UNL1        0.0190
     10 C         137.8061  141.4466  164.3285 C.3     1  UNL1        0.0228
     11 C         138.9947  140.5961  164.6661 C.3     1  UNL1        0.0909
     12 N         140.2662  141.2374  165.1372 N.pl3   1  UNL1       -0.3061
     13 C         140.3492  142.7292  165.2707 C.3     1  UNL1        0.1062
     14 H         138.3518  145.4869  164.7975 H       1  UNL1        0.1189
     15 H         139.9815  145.4266  164.4585 H       1  UNL1        0.1189
     16 C         140.6200  140.1939  167.9275 C.2     1  UNL1        0.0124
     17 C         140.9456  141.2023  168.9893 C.2     1  UNL1        0.0873
     18 S         142.2340  141.9589  169.1213 S.3     1  UNL1       -0.0254
     19 C         142.1245  142.8553  170.3190 C.2     1  UNL1        0.2832
     20 O         143.1849  143.7901  170.8205 O.2     1  UNL1       -0.2622
     21 N         140.7683  142.6527  170.9273 N.am    1  UNL1       -0.2425
     22 C         140.0397  141.6310  170.1054 C.2     1  UNL1        0.2583
     23 O         138.6494  141.1267  170.3557 O.2     1  UNL1       -0.2692
     24 H         140.4180  143.1099  171.7257 H       1  UNL1        0.1587
     25 C         142.2896  140.5800  163.0221 C.ar    1  UNL1        0.0043
     26 C         141.5042  139.7880  162.0192 C.ar    1  UNL1        0.0207
     27 C         141.3272  140.3097  160.6240 C.ar    1  UNL1        0.0989
     28 N         141.9357  141.6235  160.2318 N.ar    1  UNL1       -0.2423
     29 C         142.7211  142.4155  161.2347 C.ar    1  UNL1        0.0989
     30 C         142.8981  141.8937  162.6298 C.ar    1  UNL1        0.0207
@<TRIPOS>BOND
     1     8     7    1
     2     8     9    1
     3     9    10    1
     4    10    11    1
     5    11    12    1
     6    12     1    1
     7     1     2   ar
     8     2    16    1
     9    16    17    2
    10    17    18    1
    11    18    19    1
    12    19    20    2
    13    19    21   am
    14    21    22   am
    15    22    23    2
    16     2     3   ar
    17     3     4   ar
    18     4     5   ar
    19     5     6   ar
    20     6    25    1
    21    25    26   ar
    22    26    27   ar
    23    27    28   ar
    24    28    29   ar
    25    29    30   ar
    26    12    13    1
    27    13     8    1
    28     6     1   ar
    29    30    25   ar
    30    22    17    1
    31     7    14    1
    32     7    15    1
    33    21    24    1
@<TRIPOS>MOLECULE
*****
 30 33 0 0 0
SMALL
GASTEIGER

@<TRIPOS>ATOM
      1 C         141.4611  140.5166  165.4603 C.ar    1  UNL1        0.0478
      2 C         142.2957  139.9976  164.3271 C.ar    1  UNL1        0.0140
      3 C         143.4276  139.0521  164.6010 C.ar    1  UNL1        0.0012
      4 C         143.7248  138.6256  166.0081 C.ar    1  UNL1        0.0001
      5 C         142.8902  139.1447  167.1412 C.ar    1  UNL1        0.0012
      6 C         141.7584  140.0902  166.8673 C.ar    1  UNL1        0.0134
      7 N         136.7476  141.4387  163.4774 N.3     1  UNL1       -0.3208
      8 C         137.9725  141.9231  164.1949 C.3     1  UNL1        0.0709
      9 C         138.0656  143.3529  164.6386 C.3     1  UNL1        0.0190
     10 C         139.2905  143.8373  165.3562 C.3     1  UNL1        0.0228
     11 C         140.4223  142.8919  165.6300 C.3     1  UNL1        0.0909
     12 N         140.3293  141.4621  165.1864 N.pl3   1  UNL1       -0.3061
     13 C         139.1043  140.9777  164.4688 C.3     1  UNL1        0.1062
     14 H         136.0854  142.2081  163.3775 H       1  UNL1        0.1189
     15 H         136.3155  140.6855  164.0126 H       1  UNL1        0.1189
     16 C         141.9985  140.4240  162.9201 C.2     1  UNL1        0.0124
     17 C         142.5003  141.7442  162.4146 C.2     1  UNL1        0.0873
     18 S         143.3073  142.7383  163.1958 S.3     1  UNL1       -0.0254
     19 C         143.5890  143.9105  162.3032 C.2     1  UNL1        0.2832
     20 O         144.3669  145.1370  162.6777 O.2     1  UNL1       -0.2622
     21 N         142.9560  143.6407  160.9703 N.am    1  UNL1       -0.2425
     22 C         142.2832  142.3018  161.0391 C.2     1  UNL1        0.2583
     23 O         141.5262  141.6373  159.9277 O.2     1  UNL1       -0.2692
     24 H         142.9783  144.2376  160.1877 H       1  UNL1        0.1587
     25 C         140.9237  140.6093  168.0005 C.ar    1  UNL1        0.0043
     26 C         139.6825  139.8761  168.4149 C.ar    1  UNL1        0.0207
     27 C         138.8478  140.3951  169.5480 C.ar    1  UNL1        0.0989
     28 N         139.2545  141.6473  170.2667 N.ar    1  UNL1       -0.2423
     29 C         140.4957  142.3805  169.8523 C.ar    1  UNL1        0.0989
     30 C         141.3303  141.8615  168.7192 C.ar    1  UNL1        0.0207
@<TRIPOS>BOND
     1     8     7    1
     2     8     9    1
     3     9    10    1
     4    10    11    1
     5    11    12    1
     6    12     1    1
     7     1     2   ar
     8     2    16    1
     9    16    17    2
    10    17    18    1
    11    18    19    1
    12    19    20    2
    13    19    21   am
    14    21    22   am
    15    22    23    2
    16     2     3   ar
    17     3     4   ar
    18     4     5   ar
    19     5     6   ar
    20     6    25    1
    21    25    26   ar
    22    26    27   ar
    23    27    28   ar
    24    28    29   ar
    25    29    30   ar
    26    12    13    1
    27    13     8    1
    28     6     1   ar
    29    30    25   ar
    30    22    17    1
    31     7    14    1
    32     7    15    1
    33    21    24    1
@<TRIPOS>MOLECULE
*****
 30 33 0 0 0
SMALL
GASTEIGER

@<TRIPOS>ATOM
      1 C         142.4904  140.9460  165.5993 C.ar    1  UNL1        0.0478
      2 C         142.5561  140.7329  167.0826 C.ar    1  UNL1        0.0140
      3 C         143.0041  139.4107  167.6313 C.ar    1  UNL1        0.0012
      4 C         143.3864  138.3015  166.6967 C.ar    1  UNL1        0.0001
      5 C         143.3207  138.5146  165.2133 C.ar    1  UNL1        0.0012
      6 C         142.8727  139.8368  164.6646 C.ar    1  UNL1        0.0134
      7 N         143.6086  145.5065  163.3741 N.3     1  UNL1       -0.3208
      8 C         142.6015  144.5484  163.9380 C.3     1  UNL1        0.0709
      9 C         141.1465  144.9126  163.9532 C.3     1  UNL1        0.0190
     10 C         140.1394  143.9546  164.5170 C.3     1  UNL1        0.0228
     11 C         140.5873  142.6324  165.0657 C.3     1  UNL1        0.0909
     12 N         142.0424  142.2682  165.0506 N.pl3   1  UNL1       -0.3061
     13 C         143.0494  143.2263  164.4867 C.3     1  UNL1        0.1062
     14 H         143.1325  146.3478  163.0488 H       1  UNL1        0.1189
     15 H         144.0951  145.0674  162.5925 H       1  UNL1        0.1189
     16 C         142.1738  141.8421  168.0173 C.2     1  UNL1        0.0124
     17 C         140.9921  141.6822  168.9273 C.2     1  UNL1        0.0873
     18 S         140.1028  140.4774  169.0142 S.3     1  UNL1       -0.0254
     19 C         139.0534  140.7496  170.0509 C.2     1  UNL1        0.2832
     20 O         137.9560  139.8133  170.4616 O.2     1  UNL1       -0.2622
     21 N         139.2942  142.1227  170.6047 N.am    1  UNL1       -0.2425
     22 C         140.4924  142.6991  169.9103 C.2     1  UNL1        0.2583
     23 O         141.0865  144.0544  170.1558 O.2     1  UNL1       -0.2692
     24 H         138.7596  142.5676  171.3016 H       1  UNL1        0.1587
     25 C         142.8070  140.0499  163.1812 C.ar    1  UNL1        0.0043
     26 C         144.0659  140.2878  162.4012 C.ar    1  UNL1        0.0207
     27 C         144.0003  140.5008  160.9179 C.ar    1  UNL1        0.0989
     28 N         142.6756  140.4760  160.2146 N.ar    1  UNL1       -0.2423
     29 C         141.4167  140.2381  160.9946 C.ar    1  UNL1        0.0989
     30 C         141.4823  140.0251  162.4779 C.ar    1  UNL1        0.0207
@<TRIPOS>BOND
     1     8     7    1
     2     8     9    1
     3     9    10    1
     4    10    11    1
     5    11    12    1
     6    12     1    1
     7     1     2   ar
     8     2    16    1
     9    16    17    2
    10    17    18    1
    11    18    19    1
    12    19    20    2
    13    19    21   am
    14    21    22   am
    15    22    23    2
    16     2     3   ar
    17     3     4   ar
    18     4     5   ar
    19     5     6   ar
    20     6    25    1
    21    25    26   ar
    22    26    27   ar
    23    27    28   ar
    24    28    29   ar
    25    29    30   ar
    26    12    13    1
    27    13     8    1
    28     6     1   ar
    29    30    25   ar
    30    22    17    1
    31     7    14    1
    32     7    15    1
    33    21    24    1
@<TRIPOS>MOLECULE
*****
 30 33 0 0 0
SMALL
GASTEIGER

@<TRIPOS>ATOM
      1 C         140.6828  140.7195  165.4534 C.ar    1  UNL1        0.0478
      2 C         140.4741  140.2308  166.8560 C.ar    1  UNL1        0.0140
      3 C         139.1882  139.5557  167.2316 C.ar    1  UNL1        0.0012
      4 C         138.1112  139.3694  166.2043 C.ar    1  UNL1        0.0001
      5 C         138.3200  139.8581  164.8016 C.ar    1  UNL1        0.0012
      6 C         139.6058  140.5331  164.4261 C.ar    1  UNL1        0.0134
      7 N         145.5105  140.4635  163.5485 N.3     1  UNL1       -0.3208
      8 C         144.3825  141.2665  164.1254 C.3     1  UNL1        0.0709
      9 C         144.5403  142.7445  164.3268 C.3     1  UNL1        0.0190
     10 C         143.4123  143.5475  164.9037 C.3     1  UNL1        0.0228
     11 C         142.1265  142.8725  165.2792 C.3     1  UNL1        0.0909
     12 N         141.9687  141.3945  165.0778 N.pl3   1  UNL1       -0.3061
     13 C         143.0967  140.5915  164.5009 C.3     1  UNL1        0.1062
     14 H         146.3005  141.0784  163.3533 H       1  UNL1        0.1189
     15 H         145.2037  140.0190  162.6832 H       1  UNL1        0.1189
     16 C         141.5511  140.4171  167.8833 C.2     1  UNL1        0.0124
     17 C         141.4950  141.5826  168.8259 C.2     1  UNL1        0.0873
     18 S         140.4296  142.6380  168.8606 S.3     1  UNL1       -0.0254
     19 C         140.7705  143.6049  169.9555 C.2     1  UNL1        0.2832
     20 O         139.9751  144.8168  170.3407 O.2     1  UNL1       -0.2622
     21 N         142.0467  143.1472  170.5975 N.am    1  UNL1       -0.2425
     22 C         142.4944  141.8973  169.8993 C.2     1  UNL1        0.2583
     23 O         143.7254  141.1018  170.2185 O.2     1  UNL1       -0.2692
     24 H         142.5091  143.5895  171.3456 H       1  UNL1        0.1587
     25 C         139.8146  141.0218  163.0234 C.ar    1  UNL1        0.0043
     26 C         140.2825  140.0726  161.9603 C.ar    1  UNL1        0.0207
     27 C         140.4913  140.5613  160.5576 C.ar    1  UNL1        0.0989
     28 N         140.2322  141.9991  160.2180 N.ar    1  UNL1       -0.2423
     29 C         139.7643  142.9483  161.2810 C.ar    1  UNL1        0.0989
     30 C         139.5555  142.4597  162.6837 C.ar    1  UNL1        0.0207
@<TRIPOS>BOND
     1     8     7    1
     2     8     9    1
     3     9    10    1
     4    10    11    1
     5    11    12    1
     6    12     1    1
     7     1     2   ar
     8     2    16    1
     9    16    17    2
    10    17    18    1
    11    18    19    1
    12    19    20    2
    13    19    21   am
    14    21    22   am
    15    22    23    2
    16     2     3   ar
    17     3     4   ar
    18     4     5   ar
    19     5     6   ar
    20     6    25    1
    21    25    26   ar
    22    26    27   ar
    23    27    28   ar
    24    28    29   ar
    25    29    30   ar
    26    12    13    1
    27    13     8    1
    28     6     1   ar
    29    30    25   ar
    30    22    17    1
    31     7    14    1
    32     7    15    1
    33    21    24    1
@<TRIPOS>MOLECULE
*****
 30 33 0 0 0
SMALL
GASTEIGER

@<TRIPOS>ATOM
      1 C         140.2810  141.6431  164.7328 C.ar    1  UNL1        0.0478
      2 C         140.3060  142.7436  165.7517 C.ar    1  UNL1        0.0140
      3 C         139.2212  143.7795  165.7636 C.ar    1  UNL1        0.0012
      4 C         138.1114  143.7149  164.7565 C.ar    1  UNL1        0.0001
      5 C         138.0864  142.6144  163.7376 C.ar    1  UNL1        0.0012
      6 C         139.1712  141.5785  163.7257 C.ar    1  UNL1        0.0134
      7 N         144.9803  140.0660  163.1740 N.3     1  UNL1       -0.3208
      8 C         143.7154  139.8187  163.9415 C.3     1  UNL1        0.0709
      9 C         143.5354  138.5355  164.6970 C.3     1  UNL1        0.0190
     10 C         142.2706  138.2882  165.4646 C.3     1  UNL1        0.0228
     11 C         141.1858  139.3240  165.4765 C.3     1  UNL1        0.0909
     12 N         141.3658  140.6072  164.7209 N.pl3   1  UNL1       -0.3061
     13 C         142.6306  140.8545  163.9534 C.3     1  UNL1        0.1062
     14 H         145.6018  139.2637  163.2753 H       1  UNL1        0.1189
     15 H         145.4406  140.9007  163.5370 H       1  UNL1        0.1189
     16 C         141.4158  142.8082  166.7588 C.2     1  UNL1        0.0124
     17 C         141.2785  142.0977  168.0727 C.2     1  UNL1        0.0873
     18 S         140.0971  141.2878  168.5179 S.3     1  UNL1       -0.0254
     19 C         140.3870  140.7619  169.8925 C.2     1  UNL1        0.2832
     20 O         139.4763  139.9021  170.7177 O.2     1  UNL1       -0.2622
     21 N         141.7478  141.2467  170.2968 N.am    1  UNL1       -0.2425
     22 C         142.2988  142.0723  169.1721 C.2     1  UNL1        0.2583
     23 O         143.6353  142.7530  169.1506 O.2     1  UNL1       -0.2692
     24 H         142.1999  141.0565  171.1504 H       1  UNL1        0.1587
     25 C         139.1463  140.4779  162.7067 C.ar    1  UNL1        0.0043
     26 C         138.3891  139.2137  162.9867 C.ar    1  UNL1        0.0207
     27 C         138.3641  138.1132  161.9678 C.ar    1  UNL1        0.0989
     28 N         139.0963  138.2769  160.6690 N.ar    1  UNL1       -0.2423
     29 C         139.8535  139.5411  160.3890 C.ar    1  UNL1        0.0989
     30 C         139.8785  140.6416  161.4079 C.ar    1  UNL1        0.0207
@<TRIPOS>BOND
     1     8     7    1
     2     8     9    1
     3     9    10    1
     4    10    11    1
     5    11    12    1
     6    12     1    1
     7     1     2   ar
     8     2    16    1
     9    16    17    2
    10    17    18    1
    11    18    19    1
    12    19    20    2
    13    19    21   am
    14    21    22   am
    15    22    23    2
    16     2     3   ar
    17     3     4   ar
    18     4     5   ar
    19     5     6   ar
    20     6    25    1
    21    25    26   ar
    22    26    27   ar
    23    27    28   ar
    24    28    29   ar
    25    29    30   ar
    26    12    13    1
    27    13     8    1
    28     6     1   ar
    29    30    25   ar
    30    22    17    1
    31     7    14    1
    32     7    15    1
    33    21    24    1
