@<TRIPOS>MOLECULE
*****
 33 36 0 0 0
SMALL
GASTEIGER

@<TRIPOS>ATOM
      1 N         140.6910  141.6771  167.8911 N.ar    1  UNL1       -0.2399
      2 N         140.5091  141.9592  166.4292 N.ar    1  UNL1       -0.1681
      3 C         139.6299  140.8875  165.8561 C.ar    1  UNL1        0.1079
      4 C         139.2684  139.9430  166.9638 C.ar    1  UNL1        0.1031
      5 C         139.9241  140.4309  168.2215 C.ar    1  UNL1        0.1280
      6 N         139.8296  139.7859  169.5725 N.pl3   1  UNL1       -0.3427
      7 H         139.2989  138.9651  169.6901 H       1  UNL1        0.1437
      8 H         140.2984  140.1834  170.3416 H       1  UNL1        0.1437
      9 C         139.1895  140.7794  164.4262 C.ar    1  UNL1        0.0196
     10 C         137.8394  141.2886  164.0167 C.ar    1  UNL1        0.0016
     11 C         137.3991  141.1805  162.5869 C.ar    1  UNL1        0.0001
     12 C         138.3090  140.5631  161.5666 C.ar    1  UNL1        0.0030
     13 C         137.8686  140.4550  160.1367 C.ar    1  UNL1        0.0369
     14 C         138.7785  139.8376  159.1164 C.ar    1  UNL1        0.1384
     15 C         140.1287  139.3284  159.5260 C.ar    1  UNL1        0.0369
     16 C         140.5690  139.4365  160.9558 C.ar    1  UNL1        0.0031
     17 C         139.6591  140.0539  161.9761 C.ar    1  UNL1        0.0002
     18 C         140.0994  140.1620  163.4059 C.ar    1  UNL1        0.0016
     19 O         138.3382  139.7295  157.6866 O.3     1  UNL1       -0.4792
     20 C         137.6182  140.8728  157.0350 C.3     1  UNL1        0.1661
     21 C         136.6488  141.3826  156.0101 C.3     1  UNL1        0.0472
     22 C         137.3405  142.3432  156.9313 C.3     1  UNL1        0.0472
     23 C         138.4030  138.7244  166.8362 C.2     1  UNL1        0.2470
     24 N         138.5576  137.8151  165.6534 N.am    1  UNL1       -0.3252
     25 O         137.3830  138.4151  167.8917 O.2     1  UNL1       -0.2702
     26 H         139.2271  138.0181  164.9606 H       1  UNL1        0.1453
     27 H         137.9896  137.0154  165.5697 H       1  UNL1        0.1453
     28 C         142.9800  142.2899  168.9564 C.3     1  UNL1        0.0265
     29 C         141.4979  142.4970  168.8537 C.3     1  UNL1        0.1091
     30 C         140.8228  143.5241  169.7135 C.3     1  UNL1        0.0561
     31 C         139.8747  143.0926  170.7928 C.3     1  UNL1        0.1392
     32 O         140.3278  142.1263  171.8468 O.3     1  UNL1       -0.3819
     33 H         140.5119  141.2657  171.4389 H       1  UNL1        0.2104
@<TRIPOS>BOND
     1    28    29    1
     2    29    30    1
     3    30    31    1
     4    31    32    1
     5    29     1    1
     6     1     2   ar
     7     2     3   ar
     8     3     9    1
     9     9    10   ar
    10    10    11   ar
    11    11    12   ar
    12    12    13   ar
    13    13    14   ar
    14    14    19    1
    15    19    20    1
    16    20    21    1
    17    21    22    1
    18    14    15   ar
    19    15    16   ar
    20    16    17   ar
    21    17    18   ar
    22     3     4   ar
    23     4    23    1
    24    23    24   am
    25    23    25    2
    26     4     5   ar
    27     5     6    1
    28     5     1   ar
    29    18     9   ar
    30    17    12   ar
    31    22    20    1
    32    32    33    1
    33    24    26    1
    34    24    27    1
    35     6     7    1
    36     6     8    1
@<TRIPOS>MOLECULE
*****
 33 36 0 0 0
SMALL
GASTEIGER

@<TRIPOS>ATOM
      1 N         140.3791  141.2254  168.1184 N.ar    1  UNL1       -0.2399
      2 N         140.7294  141.2329  166.6599 N.ar    1  UNL1       -0.1681
      3 C         139.9272  140.1600  165.9850 C.ar    1  UNL1        0.1079
      4 C         139.0810  139.4895  167.0264 C.ar    1  UNL1        0.1031
      5 C         139.3603  140.1480  168.3449 C.ar    1  UNL1        0.1280
      6 N         138.7313  139.7915  169.6592 N.pl3   1  UNL1       -0.3427
      7 H         138.0689  139.0648  169.7069 H       1  UNL1        0.1437
      8 H         138.9808  140.2844  170.4741 H       1  UNL1        0.1437
      9 C         139.9645  139.8178  164.5250 C.ar    1  UNL1        0.0196
     10 C         141.0786  138.9736  163.9808 C.ar    1  UNL1        0.0016
     11 C         141.1159  138.6314  162.5209 C.ar    1  UNL1        0.0001
     12 C         140.0392  139.1334  161.6051 C.ar    1  UNL1        0.0030
     13 C         140.0766  138.7912  160.1451 C.ar    1  UNL1        0.0369
     14 C         138.9999  139.2932  159.2293 C.ar    1  UNL1        0.1384
     15 C         137.8858  140.1375  159.7736 C.ar    1  UNL1        0.0369
     16 C         137.8485  140.4797  161.2335 C.ar    1  UNL1        0.0031
     17 C         138.9252  139.9777  162.1493 C.ar    1  UNL1        0.0002
     18 C         138.8878  140.3198  163.6092 C.ar    1  UNL1        0.0016
     19 O         139.0372  138.9511  157.7694 O.3     1  UNL1       -0.4792
     20 C         140.3136  138.4721  157.1437 C.3     1  UNL1        0.1661
     21 C         141.5507  138.7483  156.3416 C.3     1  UNL1        0.0472
     22 C         141.2873  137.3664  156.8620 C.3     1  UNL1        0.0472
     23 C         138.1237  138.3591  166.7907 C.2     1  UNL1        0.2470
     24 N         138.3873  137.3689  165.6953 N.am    1  UNL1       -0.3252
     25 O         136.9026  138.2188  167.6505 O.2     1  UNL1       -0.2702
     26 H         139.1888  137.4609  165.1310 H       1  UNL1        0.1453
     27 H         137.7590  136.6270  165.5407 H       1  UNL1        0.1453
     28 C         140.3211  143.4754  169.4162 C.3     1  UNL1        0.0265
     29 C         140.9477  142.1356  169.1664 C.3     1  UNL1        0.1091
     30 C         142.1428  141.7060  169.9645 C.3     1  UNL1        0.0561
     31 C         141.9796  140.7334  171.0948 C.3     1  UNL1        0.1392
     32 O         140.6948  140.6906  171.8678 O.3     1  UNL1       -0.3819
     33 H         140.5812  141.5232  172.3523 H       1  UNL1        0.2104
@<TRIPOS>BOND
     1    28    29    1
     2    29    30    1
     3    30    31    1
     4    31    32    1
     5    29     1    1
     6     1     2   ar
     7     2     3   ar
     8     3     9    1
     9     9    10   ar
    10    10    11   ar
    11    11    12   ar
    12    12    13   ar
    13    13    14   ar
    14    14    19    1
    15    19    20    1
    16    20    21    1
    17    21    22    1
    18    14    15   ar
    19    15    16   ar
    20    16    17   ar
    21    17    18   ar
    22     3     4   ar
    23     4    23    1
    24    23    24   am
    25    23    25    2
    26     4     5   ar
    27     5     6    1
    28     5     1   ar
    29    18     9   ar
    30    17    12   ar
    31    22    20    1
    32    32    33    1
    33    24    26    1
    34    24    27    1
    35     6     7    1
    36     6     8    1
@<TRIPOS>MOLECULE
*****
 33 36 0 0 0
SMALL
GASTEIGER

@<TRIPOS>ATOM
      1 N         139.8007  140.7800  167.5722 N.ar    1  UNL1       -0.2399
      2 N         140.3092  141.9177  166.7375 N.ar    1  UNL1       -0.1681
      3 C         139.7463  141.7664  165.3554 C.ar    1  UNL1        0.1079
      4 C         138.8899  140.5351  165.3359 C.ar    1  UNL1        0.1031
      5 C         138.9235  139.9254  166.7060 C.ar    1  UNL1        0.1280
      6 N         138.2059  138.6799  167.1346 N.pl3   1  UNL1       -0.3427
      7 H         137.6504  138.1852  166.4897 H       1  UNL1        0.1437
      8 H         138.2904  138.3572  168.0609 H       1  UNL1        0.1437
      9 C         139.9960  142.6852  164.1962 C.ar    1  UNL1        0.0196
     10 C         139.3504  144.0386  164.1593 C.ar    1  UNL1        0.0016
     11 C         139.6001  144.9573  163.0002 C.ar    1  UNL1        0.0001
     12 C         140.4954  144.5226  161.8779 C.ar    1  UNL1        0.0030
     13 C         140.7451  145.4413  160.7188 C.ar    1  UNL1        0.0369
     14 C         141.6404  145.0066  159.5965 C.ar    1  UNL1        0.1384
     15 C         142.2860  143.6531  159.6334 C.ar    1  UNL1        0.0369
     16 C         142.0363  142.7344  160.7925 C.ar    1  UNL1        0.0031
     17 C         141.1410  143.1691  161.9148 C.ar    1  UNL1        0.0002
     18 C         140.8913  142.2505  163.0739 C.ar    1  UNL1        0.0016
     19 O         141.8901  145.9253  158.4374 O.3     1  UNL1       -0.4792
     20 C         140.9283  145.9595  157.2867 C.3     1  UNL1        0.1661
     21 C         140.4525  145.4101  155.9745 C.3     1  UNL1        0.0472
     22 C         139.7384  146.5681  156.6060 C.3     1  UNL1        0.0472
     23 C         138.1327  140.0063  164.1539 C.2     1  UNL1        0.2470
     24 N         137.0750  140.8476  163.5032 N.am    1  UNL1       -0.3252
     25 O         138.4334  138.6361  163.6227 O.2     1  UNL1       -0.2702
     26 H         136.8777  141.7469  163.8519 H       1  UNL1        0.1453
     27 H         136.5781  140.5004  162.7274 H       1  UNL1        0.1453
     28 C         139.0097  140.5251  170.0338 C.3     1  UNL1        0.0265
     29 C         140.1144  140.5390  169.0191 C.3     1  UNL1        0.1091
     30 C         141.5327  140.3118  169.4514 C.3     1  UNL1        0.0561
     31 C         142.1270  141.1499  170.5442 C.3     1  UNL1        0.1392
     32 O         142.1404  140.6422  171.9556 O.3     1  UNL1       -0.3819
     33 H         141.2298  140.5713  172.2824 H       1  UNL1        0.2104
@<TRIPOS>BOND
     1    28    29    1
     2    29    30    1
     3    30    31    1
     4    31    32    1
     5    29     1    1
     6     1     2   ar
     7     2     3   ar
     8     3     9    1
     9     9    10   ar
    10    10    11   ar
    11    11    12   ar
    12    12    13   ar
    13    13    14   ar
    14    14    19    1
    15    19    20    1
    16    20    21    1
    17    21    22    1
    18    14    15   ar
    19    15    16   ar
    20    16    17   ar
    21    17    18   ar
    22     3     4   ar
    23     4    23    1
    24    23    24   am
    25    23    25    2
    26     4     5   ar
    27     5     6    1
    28     5     1   ar
    29    18     9   ar
    30    17    12   ar
    31    22    20    1
    32    32    33    1
    33    24    26    1
    34    24    27    1
    35     6     7    1
    36     6     8    1
@<TRIPOS>MOLECULE
*****
 33 36 0 0 0
SMALL
GASTEIGER

@<TRIPOS>ATOM
      1 N         140.7041  141.3048  168.4145 N.ar    1  UNL1       -0.2399
      2 N         141.3586  141.4560  167.0733 N.ar    1  UNL1       -0.1681
      3 C         140.6638  140.5374  166.1123 C.ar    1  UNL1        0.1079
      4 C         139.5799  139.8186  166.8595 C.ar    1  UNL1        0.1031
      5 C         139.6048  140.2928  168.2823 C.ar    1  UNL1        0.1280
      6 N         138.6909  139.8353  169.3803 N.pl3   1  UNL1       -0.3427
      7 H         137.9960  139.1631  169.1944 H       1  UNL1        0.1437
      8 H         138.7858  140.2073  170.2869 H       1  UNL1        0.1437
      9 C         140.9948  140.3676  164.6591 C.ar    1  UNL1        0.0196
     10 C         140.2596  141.1665  163.6241 C.ar    1  UNL1        0.0016
     11 C         140.5907  140.9967  162.1710 C.ar    1  UNL1        0.0001
     12 C         141.6569  140.0280  161.7529 C.ar    1  UNL1        0.0030
     13 C         141.9879  139.8582  160.2997 C.ar    1  UNL1        0.0369
     14 C         143.0542  138.8895  159.8816 C.ar    1  UNL1        0.1384
     15 C         143.7894  138.0907  160.9167 C.ar    1  UNL1        0.0369
     16 C         143.4584  138.2605  162.3698 C.ar    1  UNL1        0.0031
     17 C         142.3921  139.2292  162.7879 C.ar    1  UNL1        0.0002
     18 C         142.0611  139.3990  164.2410 C.ar    1  UNL1        0.0016
     19 O         143.3852  138.7197  158.4286 O.3     1  UNL1       -0.4792
     20 C         142.7603  137.6057  157.6421 C.3     1  UNL1        0.1661
     21 C         141.6438  137.0884  156.7843 C.3     1  UNL1        0.0472
     22 C         142.7943  136.1934  157.1379 C.3     1  UNL1        0.0472
     23 C         138.6367  138.8036  166.2848 C.2     1  UNL1        0.2470
     24 N         139.0054  138.0598  165.0356 N.am    1  UNL1       -0.3252
     25 O         137.3246  138.5326  166.9595 O.2     1  UNL1       -0.2702
     26 H         139.8665  138.2377  164.5928 H       1  UNL1        0.1453
     27 H         138.3863  137.3936  164.6585 H       1  UNL1        0.1453
     28 C         140.5501  143.4164  169.9203 C.3     1  UNL1        0.0265
     29 C         141.0825  142.0370  169.6678 C.3     1  UNL1        0.1091
     30 C         141.9932  141.3898  170.6686 C.3     1  UNL1        0.0561
     31 C         142.6159  140.0592  170.3654 C.3     1  UNL1        0.1392
     32 O         143.7127  139.5278  171.2399 O.3     1  UNL1       -0.3819
     33 H         144.4950  140.0955  171.1584 H       1  UNL1        0.2104
@<TRIPOS>BOND
     1    28    29    1
     2    29    30    1
     3    30    31    1
     4    31    32    1
     5    29     1    1
     6     1     2   ar
     7     2     3   ar
     8     3     9    1
     9     9    10   ar
    10    10    11   ar
    11    11    12   ar
    12    12    13   ar
    13    13    14   ar
    14    14    19    1
    15    19    20    1
    16    20    21    1
    17    21    22    1
    18    14    15   ar
    19    15    16   ar
    20    16    17   ar
    21    17    18   ar
    22     3     4   ar
    23     4    23    1
    24    23    24   am
    25    23    25    2
    26     4     5   ar
    27     5     6    1
    28     5     1   ar
    29    18     9   ar
    30    17    12   ar
    31    22    20    1
    32    32    33    1
    33    24    26    1
    34    24    27    1
    35     6     7    1
    36     6     8    1
@<TRIPOS>MOLECULE
*****
 33 36 0 0 0
SMALL
GASTEIGER

@<TRIPOS>ATOM
      1 N         140.1057  140.3614  167.6355 N.ar    1  UNL1       -0.2399
      2 N         140.8840  141.2406  166.7022 N.ar    1  UNL1       -0.1681
      3 C         140.3028  141.0872  165.3279 C.ar    1  UNL1        0.1079
      4 C         139.1652  140.1131  165.4118 C.ar    1  UNL1        0.1031
      5 C         139.0434  139.6645  166.8380 C.ar    1  UNL1        0.1280
      6 N         138.0361  138.6901  167.3728 N.pl3   1  UNL1       -0.3427
      7 H         137.3752  138.2831  166.7671 H       1  UNL1        0.1437
      8 H         138.0359  138.4576  168.3294 H       1  UNL1        0.1437
      9 C         140.7761  141.7853  164.0874 C.ar    1  UNL1        0.0196
     10 C         141.9862  141.2812  163.3585 C.ar    1  UNL1        0.0016
     11 C         142.4595  141.9794  162.1181 C.ar    1  UNL1        0.0001
     12 C         141.7225  143.1816  161.6066 C.ar    1  UNL1        0.0030
     13 C         142.1958  143.8797  160.3662 C.ar    1  UNL1        0.0369
     14 C         141.4589  145.0820  159.8547 C.ar    1  UNL1        0.1384
     15 C         140.2487  145.5861  160.5837 C.ar    1  UNL1        0.0369
     16 C         139.7755  144.8879  161.8241 C.ar    1  UNL1        0.0031
     17 C         140.5124  143.6857  162.3356 C.ar    1  UNL1        0.0002
     18 C         140.0392  142.9876  163.5759 C.ar    1  UNL1        0.0016
     19 O         141.9321  145.7801  158.6143 O.3     1  UNL1       -0.4792
     20 C         141.0584  145.8186  157.3956 C.3     1  UNL1        0.1661
     21 C         140.7345  146.3896  156.0469 C.3     1  UNL1        0.0472
     22 C         139.8689  145.3142  156.6336 C.3     1  UNL1        0.0472
     23 C         138.3012  139.6660  164.2701 C.2     1  UNL1        0.2470
     24 N         137.2629  140.5912  163.7081 N.am    1  UNL1       -0.3252
     25 O         138.4755  138.2936  163.6903 O.2     1  UNL1       -0.2702
     26 H         137.1485  141.4920  164.0886 H       1  UNL1        0.1453
     27 H         136.6958  140.2977  162.9588 H       1  UNL1        0.1453
     28 C         139.3166  140.6773  170.0906 C.3     1  UNL1        0.0265
     29 C         140.3472  140.2062  169.1077 C.3     1  UNL1        0.1091
     30 C         141.6193  139.5799  169.5971 C.3     1  UNL1        0.0561
     31 C         142.5611  140.3691  170.4575 C.3     1  UNL1        0.1392
     32 O         142.2013  140.6707  171.8822 O.3     1  UNL1       -0.3819
     33 H         141.4304  141.2591  171.9033 H       1  UNL1        0.2104
@<TRIPOS>BOND
     1    28    29    1
     2    29    30    1
     3    30    31    1
     4    31    32    1
     5    29     1    1
     6     1     2   ar
     7     2     3   ar
     8     3     9    1
     9     9    10   ar
    10    10    11   ar
    11    11    12   ar
    12    12    13   ar
    13    13    14   ar
    14    14    19    1
    15    19    20    1
    16    20    21    1
    17    21    22    1
    18    14    15   ar
    19    15    16   ar
    20    16    17   ar
    21    17    18   ar
    22     3     4   ar
    23     4    23    1
    24    23    24   am
    25    23    25    2
    26     4     5   ar
    27     5     6    1
    28     5     1   ar
    29    18     9   ar
    30    17    12   ar
    31    22    20    1
    32    32    33    1
    33    24    26    1
    34    24    27    1
    35     6     7    1
    36     6     8    1
@<TRIPOS>MOLECULE
*****
 33 36 0 0 0
SMALL
GASTEIGER

@<TRIPOS>ATOM
      1 N         138.7427  141.9463  158.4391 N.ar    1  UNL1       -0.2399
      2 N         138.7984  141.5371  159.8811 N.ar    1  UNL1       -0.1681
      3 C         139.3904  142.6724  160.6626 C.ar    1  UNL1        0.1079
      4 C         139.7005  143.7833  159.7036 C.ar    1  UNL1        0.1031
      5 C         139.3002  143.3346  158.3294 C.ar    1  UNL1        0.1280
      6 N         139.4340  144.1337  157.0670 N.pl3   1  UNL1       -0.3427
      7 H         139.8144  145.0413  157.0970 H       1  UNL1        0.1437
      8 H         139.1414  143.7507  156.2086 H       1  UNL1        0.1437
      9 C         139.6301  142.6931  162.1432 C.ar    1  UNL1        0.0196
     10 C         138.5215  143.0786  163.0772 C.ar    1  UNL1        0.0016
     11 C         138.7612  143.0993  164.5577 C.ar    1  UNL1        0.0001
     12 C         140.1096  142.7346  165.1043 C.ar    1  UNL1        0.0030
     13 C         140.3494  142.7553  166.5849 C.ar    1  UNL1        0.0369
     14 C         141.6978  142.3906  167.1315 C.ar    1  UNL1        0.1384
     15 C         142.8065  142.0051  166.1975 C.ar    1  UNL1        0.0369
     16 C         142.5667  141.9844  164.7169 C.ar    1  UNL1        0.0031
     17 C         141.2183  142.3491  164.1703 C.ar    1  UNL1        0.0002
     18 C         140.9785  142.3284  162.6898 C.ar    1  UNL1        0.0016
     19 O         141.9375  142.4113  168.6120 O.3     1  UNL1       -0.4792
     20 C         140.9476  143.0750  169.5229 C.3     1  UNL1        0.1661
     21 C         139.8859  142.9792  170.5782 C.3     1  UNL1        0.0472
     22 C         140.2949  144.3204  170.0454 C.3     1  UNL1        0.0472
     23 C         140.3049  145.1099  160.0567 C.2     1  UNL1        0.2470
     24 N         141.7386  145.3945  159.7200 N.am    1  UNL1       -0.3252
     25 O         139.4753  146.1521  160.7465 O.2     1  UNL1       -0.2702
     26 H         142.2830  144.7105  159.2673 H       1  UNL1        0.1453
     27 H         142.1351  146.2653  159.9518 H       1  UNL1        0.1453
     28 C         139.0761  140.0327  156.7137 C.3     1  UNL1        0.0265
     29 C         138.2210  141.1136  157.3058 C.3     1  UNL1        0.1091
     30 C         136.8442  141.3617  156.7646 C.3     1  UNL1        0.0561
     31 C         136.6447  142.3327  155.6389 C.3     1  UNL1        0.1392
     32 O         136.3820  143.7797  155.9342 O.3     1  UNL1       -0.3819
     33 H         135.5246  143.8684  156.3791 H       1  UNL1        0.2104
@<TRIPOS>BOND
     1    28    29    1
     2    29    30    1
     3    30    31    1
     4    31    32    1
     5    29     1    1
     6     1     2   ar
     7     2     3   ar
     8     3     9    1
     9     9    10   ar
    10    10    11   ar
    11    11    12   ar
    12    12    13   ar
    13    13    14   ar
    14    14    19    1
    15    19    20    1
    16    20    21    1
    17    21    22    1
    18    14    15   ar
    19    15    16   ar
    20    16    17   ar
    21    17    18   ar
    22     3     4   ar
    23     4    23    1
    24    23    24   am
    25    23    25    2
    26     4     5   ar
    27     5     6    1
    28     5     1   ar
    29    18     9   ar
    30    17    12   ar
    31    22    20    1
    32    32    33    1
    33    24    26    1
    34    24    27    1
    35     6     7    1
    36     6     8    1
@<TRIPOS>MOLECULE
*****
 33 36 0 0 0
SMALL
GASTEIGER

@<TRIPOS>ATOM
      1 N         141.2337  138.3601  158.3910 N.ar    1  UNL1       -0.2399
      2 N         141.9578  138.2379  159.6989 N.ar    1  UNL1       -0.1681
      3 C         141.0358  138.7075  160.7849 C.ar    1  UNL1        0.1079
      4 C         139.7419  139.1201  160.1482 C.ar    1  UNL1        0.1031
      5 C         139.8641  138.9054  158.6687 C.ar    1  UNL1        0.1280
      6 N         138.8031  139.1866  157.6463 N.pl3   1  UNL1       -0.3427
      7 H         137.9309  139.5458  157.9281 H       1  UNL1        0.1437
      8 H         138.9790  139.0119  156.6935 H       1  UNL1        0.1437
      9 C         141.3523  138.7561  162.2504 C.ar    1  UNL1        0.0196
     10 C         141.2545  137.5106  163.0805 C.ar    1  UNL1        0.0016
     11 C         141.5710  137.5592  164.5459 C.ar    1  UNL1        0.0001
     12 C         141.9852  138.8533  165.1812 C.ar    1  UNL1        0.0030
     13 C         142.3016  138.9019  166.6467 C.ar    1  UNL1        0.0369
     14 C         142.7159  140.1960  167.2820 C.ar    1  UNL1        0.1384
     15 C         142.8136  141.4416  166.4518 C.ar    1  UNL1        0.0369
     16 C         142.4972  141.3930  164.9864 C.ar    1  UNL1        0.0031
     17 C         142.0829  140.0989  164.3511 C.ar    1  UNL1        0.0002
     18 C         141.7665  140.0502  162.8857 C.ar    1  UNL1        0.0016
     19 O         143.0323  140.2447  168.7474 O.3     1  UNL1       -0.4792
     20 C         143.2435  141.5658  169.4257 C.3     1  UNL1        0.1661
     21 C         144.1688  142.6159  169.9652 C.3     1  UNL1        0.0472
     22 C         142.6838  142.8040  170.0611 C.3     1  UNL1        0.0472
     23 C         138.5371  139.6536  160.8650 C.2     1  UNL1        0.2470
     24 N         138.1904  141.1097  160.7681 N.am    1  UNL1       -0.3252
     25 O         137.6790  138.7309  161.6789 O.2     1  UNL1       -0.2702
     26 H         138.7536  141.7153  160.2340 H       1  UNL1        0.1453
     27 H         137.3997  141.4598  161.2386 H       1  UNL1        0.1453
     28 C         142.6609  138.9692  156.3072 C.3     1  UNL1        0.0265
     29 C         141.7827  138.0004  157.0422 C.3     1  UNL1        0.1091
     30 C         141.4535  136.6718  156.4286 C.3     1  UNL1        0.0561
     31 C         140.2450  136.5296  155.5516 C.3     1  UNL1        0.1392
     32 O         138.8713  136.6122  156.1485 O.3     1  UNL1       -0.3819
     33 H         138.7308  135.8580  156.7421 H       1  UNL1        0.2104
@<TRIPOS>BOND
     1    28    29    1
     2    29    30    1
     3    30    31    1
     4    31    32    1
     5    29     1    1
     6     1     2   ar
     7     2     3   ar
     8     3     9    1
     9     9    10   ar
    10    10    11   ar
    11    11    12   ar
    12    12    13   ar
    13    13    14   ar
    14    14    19    1
    15    19    20    1
    16    20    21    1
    17    21    22    1
    18    14    15   ar
    19    15    16   ar
    20    16    17   ar
    21    17    18   ar
    22     3     4   ar
    23     4    23    1
    24    23    24   am
    25    23    25    2
    26     4     5   ar
    27     5     6    1
    28     5     1   ar
    29    18     9   ar
    30    17    12   ar
    31    22    20    1
    32    32    33    1
    33    24    26    1
    34    24    27    1
    35     6     7    1
    36     6     8    1
@<TRIPOS>MOLECULE
*****
 33 36 0 0 0
SMALL
GASTEIGER

@<TRIPOS>ATOM
      1 N         139.9631  140.2329  167.6908 N.ar    1  UNL1       -0.2399
      2 N         140.8523  141.0439  166.7955 N.ar    1  UNL1       -0.1681
      3 C         140.3850  140.8540  165.3828 C.ar    1  UNL1        0.1079
      4 C         139.2070  139.9257  165.4051 C.ar    1  UNL1        0.1031
      5 C         138.9462  139.5418  166.8315 C.ar    1  UNL1        0.1280
      6 N         137.8594  138.6275  167.3140 N.pl3   1  UNL1       -0.3427
      7 H         137.2371  138.2195  166.6693 H       1  UNL1        0.1437
      8 H         137.7684  138.4353  168.2752 H       1  UNL1        0.1437
      9 C         140.9896  141.4821  164.1621 C.ar    1  UNL1        0.0196
     10 C         140.9401  142.9704  163.9818 C.ar    1  UNL1        0.0016
     11 C         141.5447  143.5985  162.7612 C.ar    1  UNL1        0.0001
     12 C         142.1988  142.7383  161.7209 C.ar    1  UNL1        0.0030
     13 C         142.8034  143.3665  160.5002 C.ar    1  UNL1        0.0369
     14 C         143.4574  142.5063  159.4599 C.ar    1  UNL1        0.1384
     15 C         143.5069  141.0179  159.6403 C.ar    1  UNL1        0.0369
     16 C         142.9023  140.3898  160.8609 C.ar    1  UNL1        0.0031
     17 C         142.2482  141.2500  161.9012 C.ar    1  UNL1        0.0002
     18 C         141.6437  140.6219  163.1218 C.ar    1  UNL1        0.0016
     19 O         144.0620  143.1344  158.2393 O.3     1  UNL1       -0.4792
     20 C         145.1288  142.4097  157.4731 C.3     1  UNL1        0.1661
     21 C         146.5476  142.3139  156.9958 C.3     1  UNL1        0.0472
     22 C         145.5575  141.2504  156.6233 C.3     1  UNL1        0.0472
     23 C         138.4267  139.4625  164.2107 C.2     1  UNL1        0.2470
     24 N         137.4235  140.3753  163.5701 N.am    1  UNL1       -0.3252
     25 O         138.6496  138.0864  163.6569 O.2     1  UNL1       -0.2702
     26 H         137.2771  141.2784  163.9336 H       1  UNL1        0.1453
     27 H         136.9114  140.0712  162.7862 H       1  UNL1        0.1453
     28 C         138.8975  140.4856  170.0468 C.3     1  UNL1        0.0265
     29 C         140.0717  140.1310  169.1834 C.3     1  UNL1        0.1091
     30 C         141.3546  139.6744  169.8126 C.3     1  UNL1        0.0561
     31 C         142.2182  140.6539  170.5505 C.3     1  UNL1        0.1392
     32 O         142.2858  140.6142  172.0485 O.3     1  UNL1       -0.3819
     33 H         141.4204  140.8506  172.4175 H       1  UNL1        0.2104
@<TRIPOS>BOND
     1    28    29    1
     2    29    30    1
     3    30    31    1
     4    31    32    1
     5    29     1    1
     6     1     2   ar
     7     2     3   ar
     8     3     9    1
     9     9    10   ar
    10    10    11   ar
    11    11    12   ar
    12    12    13   ar
    13    13    14   ar
    14    14    19    1
    15    19    20    1
    16    20    21    1
    17    21    22    1
    18    14    15   ar
    19    15    16   ar
    20    16    17   ar
    21    17    18   ar
    22     3     4   ar
    23     4    23    1
    24    23    24   am
    25    23    25    2
    26     4     5   ar
    27     5     6    1
    28     5     1   ar
    29    18     9   ar
    30    17    12   ar
    31    22    20    1
    32    32    33    1
    33    24    26    1
    34    24    27    1
    35     6     7    1
    36     6     8    1
@<TRIPOS>MOLECULE
*****
 33 36 0 0 0
SMALL
GASTEIGER

@<TRIPOS>ATOM
      1 N         140.5720  141.7225  168.2208 N.ar    1  UNL1       -0.2399
      2 N         140.9013  142.0495  166.7944 N.ar    1  UNL1       -0.1681
      3 C         140.2191  141.0410  165.9183 C.ar    1  UNL1        0.1079
      4 C         139.4681  140.0908  166.8032 C.ar    1  UNL1        0.1031
      5 C         139.6862  140.5120  168.2262 C.ar    1  UNL1        0.1280
      6 N         139.1182  139.8405  169.4414 N.pl3   1  UNL1       -0.3427
      7 H         138.5441  139.0469  169.3422 H       1  UNL1        0.1437
      8 H         139.3196  140.1934  170.3382 H       1  UNL1        0.1437
      9 C         140.2776  140.9915  164.4202 C.ar    1  UNL1        0.0196
     10 C         141.3685  140.2211  163.7373 C.ar    1  UNL1        0.0016
     11 C         141.4270  140.1717  162.2393 C.ar    1  UNL1        0.0001
     12 C         140.3945  140.8925  161.4242 C.ar    1  UNL1        0.0030
     13 C         140.4530  140.8430  159.9261 C.ar    1  UNL1        0.0369
     14 C         139.4205  141.5638  159.1110 C.ar    1  UNL1        0.1384
     15 C         138.3295  142.3341  159.7940 C.ar    1  UNL1        0.0369
     16 C         138.2710  142.3836  161.2920 C.ar    1  UNL1        0.0031
     17 C         139.3035  141.6628  162.1071 C.ar    1  UNL1        0.0002
     18 C         139.2451  141.7123  163.6051 C.ar    1  UNL1        0.0016
     19 O         139.4789  141.5143  157.6130 O.3     1  UNL1       -0.4792
     20 C         138.2106  141.4524  156.8145 C.3     1  UNL1        0.1661
     21 C         137.2329  140.6712  155.9875 C.3     1  UNL1        0.0472
     22 C         136.9914  142.1266  156.2586 C.3     1  UNL1        0.0472
     23 C         138.6438  138.9242  166.3455 C.2     1  UNL1        0.2470
     24 N         139.1645  138.0119  165.2748 N.am    1  UNL1       -0.3252
     25 O         137.2985  138.6699  166.9586 O.2     1  UNL1       -0.2702
     26 H         140.0473  138.1787  164.8724 H       1  UNL1        0.1453
     27 H         138.6233  137.2462  164.9745 H       1  UNL1        0.1453
     28 C         140.3647  143.7480  169.8347 C.3     1  UNL1        0.0265
     29 C         141.0453  142.4741  169.4295 C.3     1  UNL1        0.1091
     30 C         142.1992  141.9519  170.2331 C.3     1  UNL1        0.0561
     31 C         141.9976  140.8024  171.1755 C.3     1  UNL1        0.1392
     32 O         140.7153  140.6785  171.9438 O.3     1  UNL1       -0.3819
     33 H         140.6405  141.4162  172.5692 H       1  UNL1        0.2104
@<TRIPOS>BOND
     1    28    29    1
     2    29    30    1
     3    30    31    1
     4    31    32    1
     5    29     1    1
     6     1     2   ar
     7     2     3   ar
     8     3     9    1
     9     9    10   ar
    10    10    11   ar
    11    11    12   ar
    12    12    13   ar
    13    13    14   ar
    14    14    19    1
    15    19    20    1
    16    20    21    1
    17    21    22    1
    18    14    15   ar
    19    15    16   ar
    20    16    17   ar
    21    17    18   ar
    22     3     4   ar
    23     4    23    1
    24    23    24   am
    25    23    25    2
    26     4     5   ar
    27     5     6    1
    28     5     1   ar
    29    18     9   ar
    30    17    12   ar
    31    22    20    1
    32    32    33    1
    33    24    26    1
    34    24    27    1
    35     6     7    1
    36     6     8    1
