@<TRIPOS>MOLECULE
*****
 37 40 0 0 0
SMALL
GASTEIGER

@<TRIPOS>ATOM
      1 C         140.5304  141.2352  160.9817 C.2     1  UNL1        0.1397
      2 C         140.7601  140.4130  159.7483 C.2     1  UNL1        0.1355
      3 N         139.8039  140.5058  158.5963 N.pl3   1  UNL1       -0.1998
      4 C         138.6181  141.4207  158.6776 C.2     1  UNL1        0.3442
      5 N         138.3884  142.2429  159.9110 N.2     1  UNL1       -0.0580
      6 C         139.3445  142.1501  161.0630 C.3     1  UNL1        0.2692
      7 H         139.9547  139.9662  157.7868 H       1  UNL1        0.2983
      8 C         139.1148  142.9724  162.2964 C.ar    1  UNL1        0.0371
      9 C         139.7810  144.3084  162.4420 C.ar    1  UNL1        0.0030
     10 C         139.5513  145.1306  163.6753 C.ar    1  UNL1        0.0295
     11 C         138.6553  144.6168  164.7632 C.ar    1  UNL1        0.1406
     12 F         138.4256  145.4390  165.9965 F       1  UNL1       -0.2042
     13 C         137.9891  143.2808  164.6176 C.ar    1  UNL1        0.0362
     14 C         138.2189  142.4585  163.3842 C.ar    1  UNL1        0.0372
     15 BR        137.5527  141.1225  163.2387 Br      1  UNL1       -0.0491
     16 C         137.6620  141.5135  157.5256 C.ar    1  UNL1        0.1927
     17 N         136.5926  140.5183  157.1849 N.ar    1  UNL1       -0.2351
     18 C         135.8770  141.0075  155.9607 C.ar    1  UNL1        0.0775
     19 C         136.5042  142.3050  155.5447 C.ar    1  UNL1        0.0524
     20 S         137.6073  142.6177  156.5118 S.2     1  UNL1       -0.0590
     21 C         134.7349  140.3198  155.2733 C.3     1  UNL1        0.1556
     22 C         133.5263  139.9056  156.0592 C.2     1  UNL1        0.3232
     23 O         132.3022  140.7726  156.0652 O.2     1  UNL1       -0.2497
     24 O         133.5417  138.6244  156.8390 O.3     1  UNL1       -0.4441
     25 C         133.1299  138.6194  158.2815 C.3     1  UNL1        0.2556
     26 C         141.4865  141.1424  162.1337 C.2     1  UNL1        0.3447
     27 O         141.1734  140.2505  163.2983 O.2     1  UNL1       -0.2450
     28 O         142.7558  141.9416  162.1212 O.3     1  UNL1       -0.4455
     29 C         143.5695  144.2548  162.9799 C.3     1  UNL1        0.0513
     30 C         143.0700  142.8680  163.2583 C.3     1  UNL1        0.2089
     31 C         141.9459  139.4980  159.6670 C.3     1  UNL1        0.1405
     32 N         142.8601  139.5589  158.4793 N.3     1  UNL1       -0.2617
     33 C         143.9244  140.6134  158.4053 C.3     1  UNL1        0.1050
     34 C         144.8386  140.6743  157.2176 C.3     1  UNL1        0.1595
     35 O         144.6885  139.6807  156.1040 O.3     1  UNL1       -0.3508
     36 C         143.6243  138.6262  156.1780 C.3     1  UNL1        0.1595
     37 C         142.7101  138.5653  157.3656 C.3     1  UNL1        0.1050
@<TRIPOS>BOND
     1    29    30    1
     2    30    28    1
     3    28    26    1
     4    26    27    2
     5    26     1    1
     6     1     2    2
     7     2    31    1
     8    31    32    1
     9    32    33    1
    10    33    34    1
    11    34    35    1
    12    35    36    1
    13    36    37    1
    14     2     3    1
    15     3     4    1
    16     4    16    1
    17    16    17   ar
    18    17    18   ar
    19    18    21    1
    20    21    22    1
    21    22    23    2
    22    22    24    1
    23    24    25    1
    24    18    19   ar
    25    19    20   ar
    26     4     5    2
    27     5     6    1
    28     6     8    1
    29     8     9   ar
    30     9    10   ar
    31    10    11   ar
    32    11    12    1
    33    11    13   ar
    34    13    14   ar
    35    14    15    1
    36     6     1    1
    37    14     8   ar
    38    37    32    1
    39    20    16   ar
    40     3     7    1
@<TRIPOS>MOLECULE
*****
 37 40 0 0 0
SMALL
GASTEIGER

@<TRIPOS>ATOM
      1 C         142.2957  141.0827  161.6925 C.2     1  UNL1        0.1397
      2 C         141.9092  141.5432  160.3183 C.2     1  UNL1        0.1355
      3 N         141.8230  140.5554  159.1928 N.pl3   1  UNL1       -0.1998
      4 C         142.1233  139.1070  159.4415 C.2     1  UNL1        0.3442
      5 N         142.5098  138.6464  160.8157 N.2     1  UNL1       -0.0580
      6 C         142.5960  139.6342  161.9412 C.3     1  UNL1        0.2692
      7 H         141.5694  140.8577  158.2909 H       1  UNL1        0.2983
      8 C         142.9824  139.1736  163.3154 C.ar    1  UNL1        0.0371
      9 C         144.3920  139.3504  163.7969 C.ar    1  UNL1        0.0030
     10 C         144.7785  138.8897  165.1711 C.ar    1  UNL1        0.0295
     11 C         143.7554  138.2523  166.0639 C.ar    1  UNL1        0.1406
     12 F         144.1420  137.7917  167.4380 F       1  UNL1       -0.2042
     13 C         142.3459  138.0755  165.5824 C.ar    1  UNL1        0.0362
     14 C         141.9594  138.5362  164.2082 C.ar    1  UNL1        0.0372
     15 BR        140.5498  138.3594  163.7267 Br      1  UNL1       -0.0491
     16 C         142.0371  138.1192  158.3160 C.ar    1  UNL1        0.1927
     17 N         143.0042  137.0052  158.0446 N.ar    1  UNL1       -0.2351
     18 C         142.5335  136.2694  156.8251 C.ar    1  UNL1        0.0775
     19 C         141.2755  136.9287  156.3428 C.ar    1  UNL1        0.0524
     20 S         140.9687  138.0719  157.2642 S.2     1  UNL1       -0.0590
     21 C         143.2032  135.0827  156.1981 C.3     1  UNL1        0.1556
     22 C         143.2890  133.7867  156.9484 C.2     1  UNL1        0.3232
     23 O         142.2704  132.7121  156.7079 O.2     1  UNL1       -0.2497
     24 O         144.3932  133.5653  157.9392 O.3     1  UNL1       -0.4441
     25 C         145.1603  132.2762  157.9316 C.3     1  UNL1        0.2556
     26 C         142.3819  142.0705  162.8180 C.2     1  UNL1        0.3447
     27 O         141.2444  142.2052  163.7865 O.2     1  UNL1       -0.2450
     28 O         143.6056  142.9236  162.9751 O.3     1  UNL1       -0.4455
     29 C         144.5483  143.4941  165.3280 C.3     1  UNL1        0.0513
     30 C         143.7181  143.8672  164.1357 C.3     1  UNL1        0.2089
     31 C         141.6089  142.9917  160.0696 C.3     1  UNL1        0.1405
     32 N         140.5035  143.6688  160.8242 N.3     1  UNL1       -0.2617
     33 C         139.2226  142.9369  161.0953 C.3     1  UNL1        0.1050
     34 C         138.1171  143.6140  161.8500 C.3     1  UNL1        0.1595
     35 O         138.2925  145.0231  162.3334 O.3     1  UNL1       -0.3508
     36 C         139.5734  145.7551  162.0622 C.3     1  UNL1        0.1595
     37 C         140.6789  145.0780  161.3076 C.3     1  UNL1        0.1050
@<TRIPOS>BOND
     1    29    30    1
     2    30    28    1
     3    28    26    1
     4    26    27    2
     5    26     1    1
     6     1     2    2
     7     2    31    1
     8    31    32    1
     9    32    33    1
    10    33    34    1
    11    34    35    1
    12    35    36    1
    13    36    37    1
    14     2     3    1
    15     3     4    1
    16     4    16    1
    17    16    17   ar
    18    17    18   ar
    19    18    21    1
    20    21    22    1
    21    22    23    2
    22    22    24    1
    23    24    25    1
    24    18    19   ar
    25    19    20   ar
    26     4     5    2
    27     5     6    1
    28     6     8    1
    29     8     9   ar
    30     9    10   ar
    31    10    11   ar
    32    11    12    1
    33    11    13   ar
    34    13    14   ar
    35    14    15    1
    36     6     1    1
    37    14     8   ar
    38    37    32    1
    39    20    16   ar
    40     3     7    1
@<TRIPOS>MOLECULE
*****
 37 40 0 0 0
SMALL
GASTEIGER

@<TRIPOS>ATOM
      1 C         142.0433  140.7159  161.3464 C.2     1  UNL1        0.1397
      2 C         142.8112  141.3016  160.1987 C.2     1  UNL1        0.1355
      3 N         143.1176  140.4612  158.9946 N.pl3   1  UNL1       -0.1998
      4 C         142.6560  139.0351  158.9382 C.2     1  UNL1        0.3442
      5 N         141.8881  138.4494  160.0858 N.2     1  UNL1       -0.0580
      6 C         141.5817  139.2898  161.2899 C.3     1  UNL1        0.2692
      7 H         143.6216  140.8456  158.2413 H       1  UNL1        0.2983
      8 C         140.8137  138.7041  162.4377 C.ar    1  UNL1        0.0371
      9 C         141.5391  137.9859  163.5368 C.ar    1  UNL1        0.0030
     10 C         140.7712  137.4002  164.6844 C.ar    1  UNL1        0.0295
     11 C         139.2778  137.5326  164.7331 C.ar    1  UNL1        0.1406
     12 F         138.5099  136.9469  165.8807 F       1  UNL1       -0.2042
     13 C         138.5524  138.2508  163.6339 C.ar    1  UNL1        0.0362
     14 C         139.3204  138.8365  162.4862 C.ar    1  UNL1        0.0372
     15 BR        138.5950  139.5546  161.3871 Br      1  UNL1       -0.0491
     16 C         142.9624  138.1947  157.7341 C.ar    1  UNL1        0.1927
     17 N         143.1355  136.7048  157.7196 N.ar    1  UNL1       -0.2351
     18 C         143.4295  136.2859  156.3096 C.ar    1  UNL1        0.0775
     19 C         143.4381  137.5169  155.4526 C.ar    1  UNL1        0.0524
     20 S         143.1494  138.6966  156.3330 S.2     1  UNL1       -0.0590
     21 C         143.6723  134.8824  155.8393 C.3     1  UNL1        0.1556
     22 C         143.4189  133.7277  156.7624 C.2     1  UNL1        0.3232
     23 O         142.2398  132.8291  156.5335 O.2     1  UNL1       -0.2497
     24 O         144.3446  133.4714  157.9146 O.3     1  UNL1       -0.4441
     25 C         145.2346  132.2639  157.9073 C.3     1  UNL1        0.2556
     26 C         141.7369  141.5563  162.5505 C.2     1  UNL1        0.3447
     27 O         140.5722  142.5012  162.5289 O.2     1  UNL1       -0.2450
     28 O         142.5952  141.4518  163.7761 O.3     1  UNL1       -0.4455
     29 C         144.9110  140.2891  163.5877 C.3     1  UNL1        0.0513
     30 C         144.0878  141.5412  163.6564 C.3     1  UNL1        0.2089
     31 C         143.2728  142.7277  160.2551 C.3     1  UNL1        0.1405
     32 N         142.5447  143.7830  159.4766 N.3     1  UNL1       -0.2617
     33 C         141.4817  144.6063  160.1416 C.3     1  UNL1        0.1050
     34 C         140.7536  145.6616  159.3630 C.3     1  UNL1        0.1595
     35 O         141.0886  145.8937  157.9194 O.3     1  UNL1       -0.3508
     36 C         142.1516  145.0704  157.2544 C.3     1  UNL1        0.1595
     37 C         142.8796  144.0151  158.0329 C.3     1  UNL1        0.1050
@<TRIPOS>BOND
     1    29    30    1
     2    30    28    1
     3    28    26    1
     4    26    27    2
     5    26     1    1
     6     1     2    2
     7     2    31    1
     8    31    32    1
     9    32    33    1
    10    33    34    1
    11    34    35    1
    12    35    36    1
    13    36    37    1
    14     2     3    1
    15     3     4    1
    16     4    16    1
    17    16    17   ar
    18    17    18   ar
    19    18    21    1
    20    21    22    1
    21    22    23    2
    22    22    24    1
    23    24    25    1
    24    18    19   ar
    25    19    20   ar
    26     4     5    2
    27     5     6    1
    28     6     8    1
    29     8     9   ar
    30     9    10   ar
    31    10    11   ar
    32    11    12    1
    33    11    13   ar
    34    13    14   ar
    35    14    15    1
    36     6     1    1
    37    14     8   ar
    38    37    32    1
    39    20    16   ar
    40     3     7    1
@<TRIPOS>MOLECULE
*****
 37 40 0 0 0
SMALL
GASTEIGER

@<TRIPOS>ATOM
      1 C         141.9757  143.1568  160.6391 C.2     1  UNL1        0.1397
      2 C         142.8682  143.1162  159.4342 C.2     1  UNL1        0.1355
      3 N         142.5155  143.9118  158.2124 N.pl3   1  UNL1       -0.1998
      4 C         141.2703  144.7480  158.1956 C.2     1  UNL1        0.3442
      5 N         140.3779  144.7886  159.4006 N.2     1  UNL1       -0.0580
      6 C         140.7306  143.9930  160.6223 C.3     1  UNL1        0.2692
      7 H         143.1012  143.8851  157.4216 H       1  UNL1        0.2983
      8 C         139.8381  144.0336  161.8272 C.ar    1  UNL1        0.0371
      9 C         140.1269  144.9944  162.9424 C.ar    1  UNL1        0.0030
     10 C         139.2344  145.0351  164.1473 C.ar    1  UNL1        0.0295
     11 C         138.0532  144.1150  164.2371 C.ar    1  UNL1        0.1406
     12 F         137.1607  144.1556  165.4420 F       1  UNL1       -0.2042
     13 C         137.7644  143.1542  163.1220 C.ar    1  UNL1        0.0362
     14 C         138.6569  143.1135  161.9170 C.ar    1  UNL1        0.0372
     15 BR        138.3681  142.1528  160.8019 Br      1  UNL1       -0.0491
     16 C         140.9176  145.5436  156.9739 C.ar    1  UNL1        0.1927
     17 N         139.8672  146.6111  156.8898 N.ar    1  UNL1       -0.2351
     18 C         139.8538  147.1387  155.4857 C.ar    1  UNL1        0.0775
     19 C         140.8959  146.3972  154.7020 C.ar    1  UNL1        0.0524
     20 S         141.5533  145.4114  155.6218 S.2     1  UNL1       -0.0590
     21 C         138.9559  148.2182  154.9580 C.3     1  UNL1        0.1556
     22 C         138.8703  149.5364  155.6686 C.2     1  UNL1        0.3232
     23 O         138.2552  149.6136  157.0345 O.2     1  UNL1       -0.2497
     24 O         139.3997  150.7774  155.0132 O.3     1  UNL1       -0.4441
     25 C         138.5420  152.0053  154.9291 C.3     1  UNL1        0.2556
     26 C         142.3284  142.3612  161.8608 C.2     1  UNL1        0.3447
     27 O         141.6584  141.0439  162.1173 O.2     1  UNL1       -0.2450
     28 O         143.3512  142.8828  162.8261 O.3     1  UNL1       -0.4455
     29 C         143.6369  145.1908  163.9844 C.3     1  UNL1        0.0513
     30 C         143.7710  144.3217  162.7691 C.3     1  UNL1        0.2089
     31 C         144.1134  142.2799  159.4509 C.3     1  UNL1        0.1405
     32 N         144.7420  141.8448  158.1604 N.3     1  UNL1       -0.2617
     33 C         145.9361  142.5769  157.6235 C.3     1  UNL1        0.1050
     34 C         146.5647  142.1417  156.3329 C.3     1  UNL1        0.1595
     35 O         145.9993  140.9745  155.5794 O.3     1  UNL1       -0.3508
     36 C         144.8052  140.2424  156.1163 C.3     1  UNL1        0.1595
     37 C         144.1766  140.6775  157.4068 C.3     1  UNL1        0.1050
@<TRIPOS>BOND
     1    29    30    1
     2    30    28    1
     3    28    26    1
     4    26    27    2
     5    26     1    1
     6     1     2    2
     7     2    31    1
     8    31    32    1
     9    32    33    1
    10    33    34    1
    11    34    35    1
    12    35    36    1
    13    36    37    1
    14     2     3    1
    15     3     4    1
    16     4    16    1
    17    16    17   ar
    18    17    18   ar
    19    18    21    1
    20    21    22    1
    21    22    23    2
    22    22    24    1
    23    24    25    1
    24    18    19   ar
    25    19    20   ar
    26     4     5    2
    27     5     6    1
    28     6     8    1
    29     8     9   ar
    30     9    10   ar
    31    10    11   ar
    32    11    12    1
    33    11    13   ar
    34    13    14   ar
    35    14    15    1
    36     6     1    1
    37    14     8   ar
    38    37    32    1
    39    20    16   ar
    40     3     7    1
@<TRIPOS>MOLECULE
*****
 37 40 0 0 0
SMALL
GASTEIGER

@<TRIPOS>ATOM
      1 C         141.5224  141.5301  161.7526 C.2     1  UNL1        0.1397
      2 C         142.1921  141.8460  160.4481 C.2     1  UNL1        0.1355
      3 N         142.2730  140.8017  159.3744 N.pl3   1  UNL1       -0.1998
      4 C         141.6843  139.4415  159.6051 C.2     1  UNL1        0.3442
      5 N         141.0147  139.1256  160.9096 N.2     1  UNL1       -0.0580
      6 C         140.9337  140.1699  161.9834 C.3     1  UNL1        0.2692
      7 H         142.7126  141.0091  158.5182 H       1  UNL1        0.2983
      8 C         140.2640  139.8539  163.2879 C.ar    1  UNL1        0.0371
      9 C         141.0515  139.2351  164.4046 C.ar    1  UNL1        0.0030
     10 C         140.3818  138.9191  165.7091 C.ar    1  UNL1        0.0295
     11 C         138.9247  139.2220  165.8969 C.ar    1  UNL1        0.1406
     12 F         138.2551  138.9060  167.2014 F       1  UNL1       -0.2042
     13 C         138.1373  139.8408  164.7802 C.ar    1  UNL1        0.0362
     14 C         138.8070  140.1567  163.4757 C.ar    1  UNL1        0.0372
     15 BR        138.0196  140.7755  162.3590 Br      1  UNL1       -0.0491
     16 C         141.7653  138.3972  158.5314 C.ar    1  UNL1        0.1927
     17 N         142.8925  137.4291  158.3262 N.ar    1  UNL1       -0.2351
     18 C         142.5572  136.5713  157.1423 C.ar    1  UNL1        0.0775
     19 C         141.2226  137.0092  156.6158 C.ar    1  UNL1        0.0524
     20 S         140.7332  138.1377  157.4743 S.2     1  UNL1       -0.0590
     21 C         143.4071  135.4690  156.5831 C.3     1  UNL1        0.1556
     22 C         143.3196  134.0877  157.1612 C.2     1  UNL1        0.3232
     23 O         144.2640  133.6683  158.2484 O.2     1  UNL1       -0.2497
     24 O         142.2875  133.1256  156.6519 O.3     1  UNL1       -0.4441
     25 C         141.5514  133.4200  155.3784 C.3     1  UNL1        0.2556
     26 C         141.4415  142.5743  162.8264 C.2     1  UNL1        0.3447
     27 O         140.4009  143.6518  162.7478 O.2     1  UNL1       -0.2450
     28 O         142.4011  142.5412  163.9787 O.3     1  UNL1       -0.4455
     29 C         140.6575  142.6098  165.9036 C.3     1  UNL1        0.0513
     30 C         141.9727  143.0421  165.3261 C.3     1  UNL1        0.2089
     31 C         142.7808  143.2062  160.2173 C.3     1  UNL1        0.1405
     32 N         142.1670  144.1272  159.2050 N.3     1  UNL1       -0.2617
     33 C         142.7476  144.2187  157.8249 C.3     1  UNL1        0.1050
     34 C         142.1337  145.1398  156.8125 C.3     1  UNL1        0.1595
     35 O         140.9392  145.9692  157.1802 O.3     1  UNL1       -0.3508
     36 C         140.3586  145.8777  158.5602 C.3     1  UNL1        0.1595
     37 C         140.9724  144.9567  159.5726 C.3     1  UNL1        0.1050
@<TRIPOS>BOND
     1    29    30    1
     2    30    28    1
     3    28    26    1
     4    26    27    2
     5    26     1    1
     6     1     2    2
     7     2    31    1
     8    31    32    1
     9    32    33    1
    10    33    34    1
    11    34    35    1
    12    35    36    1
    13    36    37    1
    14     2     3    1
    15     3     4    1
    16     4    16    1
    17    16    17   ar
    18    17    18   ar
    19    18    21    1
    20    21    22    1
    21    22    23    2
    22    22    24    1
    23    24    25    1
    24    18    19   ar
    25    19    20   ar
    26     4     5    2
    27     5     6    1
    28     6     8    1
    29     8     9   ar
    30     9    10   ar
    31    10    11   ar
    32    11    12    1
    33    11    13   ar
    34    13    14   ar
    35    14    15    1
    36     6     1    1
    37    14     8   ar
    38    37    32    1
    39    20    16   ar
    40     3     7    1
@<TRIPOS>MOLECULE
*****
 37 40 0 0 0
SMALL
GASTEIGER

@<TRIPOS>ATOM
      1 C         140.4855  141.6078  160.4357 C.2     1  UNL1        0.1397
      2 C         140.5822  142.5003  159.2341 C.2     1  UNL1        0.1355
      3 N         139.5173  142.4553  158.1787 N.pl3   1  UNL1       -0.1998
      4 C         138.3556  141.5178  158.3249 C.2     1  UNL1        0.3442
      5 N         138.2589  140.6252  159.5266 N.2     1  UNL1       -0.0580
      6 C         139.3238  140.6703  160.5820 C.3     1  UNL1        0.2692
      7 H         139.5808  143.0411  157.3900 H       1  UNL1        0.2983
      8 C         139.2270  139.7777  161.7837 C.ar    1  UNL1        0.0371
      9 C         139.9087  138.4415  161.7823 C.ar    1  UNL1        0.0030
     10 C         139.8119  137.5489  162.9839 C.ar    1  UNL1        0.0295
     11 C         139.0334  137.9925  164.1870 C.ar    1  UNL1        0.1406
     12 F         138.9367  137.0999  165.3886 F       1  UNL1       -0.2042
     13 C         138.3517  139.3287  164.1883 C.ar    1  UNL1        0.0362
     14 C         138.4485  140.2212  162.9866 C.ar    1  UNL1        0.0372
     15 BR        137.7668  141.5574  162.9880 Br      1  UNL1       -0.0491
     16 C         137.2907  141.4727  157.2695 C.ar    1  UNL1        0.1927
     17 N         136.1194  140.5362  157.2382 N.ar    1  UNL1       -0.2351
     18 C         135.3148  140.8410  156.0095 C.ar    1  UNL1        0.0775
     19 C         135.9889  141.9659  155.2813 C.ar    1  UNL1        0.0524
     20 S         137.2100  142.3563  156.0601 S.2     1  UNL1       -0.0590
     21 C         134.0571  140.1434  155.5836 C.3     1  UNL1        0.1556
     22 C         132.7390  140.5460  156.1756 C.2     1  UNL1        0.3232
     23 O         131.8454  141.4988  155.4384 O.2     1  UNL1       -0.2497
     24 O         132.3144  139.9957  157.5049 O.3     1  UNL1       -0.4441
     25 C         132.9461  138.7421  158.0340 C.3     1  UNL1        0.2556
     26 C         141.5504  141.6528  161.4911 C.2     1  UNL1        0.3447
     27 O         142.7493  140.7576  161.3855 O.2     1  UNL1       -0.2450
     28 O         141.4165  142.5931  162.6521 O.3     1  UNL1       -0.4455
     29 C         140.7056  142.7723  165.1446 C.3     1  UNL1        0.0513
     30 C         141.4532  142.0628  164.0548 C.3     1  UNL1        0.2089
     31 C         141.7440  143.4379  159.0878 C.3     1  UNL1        0.1405
     32 N         142.8681  143.0993  158.1541 N.3     1  UNL1       -0.2617
     33 C         142.6743  143.2211  156.6717 C.3     1  UNL1        0.1050
     34 C         143.7985  142.8825  155.7380 C.3     1  UNL1        0.1595
     35 O         145.1164  142.4221  156.2868 O.3     1  UNL1       -0.3508
     36 C         145.3101  142.3003  157.7693 C.3     1  UNL1        0.1595
     37 C         144.1860  142.6389  158.7029 C.3     1  UNL1        0.1050
@<TRIPOS>BOND
     1    29    30    1
     2    30    28    1
     3    28    26    1
     4    26    27    2
     5    26     1    1
     6     1     2    2
     7     2    31    1
     8    31    32    1
     9    32    33    1
    10    33    34    1
    11    34    35    1
    12    35    36    1
    13    36    37    1
    14     2     3    1
    15     3     4    1
    16     4    16    1
    17    16    17   ar
    18    17    18   ar
    19    18    21    1
    20    21    22    1
    21    22    23    2
    22    22    24    1
    23    24    25    1
    24    18    19   ar
    25    19    20   ar
    26     4     5    2
    27     5     6    1
    28     6     8    1
    29     8     9   ar
    30     9    10   ar
    31    10    11   ar
    32    11    12    1
    33    11    13   ar
    34    13    14   ar
    35    14    15    1
    36     6     1    1
    37    14     8   ar
    38    37    32    1
    39    20    16   ar
    40     3     7    1
@<TRIPOS>MOLECULE
*****
 37 40 0 0 0
SMALL
GASTEIGER

@<TRIPOS>ATOM
      1 C         141.3497  140.8648  161.2616 C.2     1  UNL1        0.1397
      2 C         140.9230  141.2506  159.8763 C.2     1  UNL1        0.1355
      3 N         141.2351  140.3506  158.7176 N.pl3   1  UNL1       -0.1998
      4 C         141.9738  139.0650  158.9441 C.2     1  UNL1        0.3442
      5 N         142.4004  138.6792  160.3294 N.2     1  UNL1       -0.0580
      6 C         142.0883  139.5792  161.4882 C.3     1  UNL1        0.2692
      7 H         140.9551  140.6038  157.8083 H       1  UNL1        0.2983
      8 C         142.5150  139.1934  162.8736 C.ar    1  UNL1        0.0371
      9 C         143.8528  139.6281  163.3947 C.ar    1  UNL1        0.0030
     10 C         144.2795  139.2423  164.7800 C.ar    1  UNL1        0.0295
     11 C         143.3684  138.4219  165.6442 C.ar    1  UNL1        0.1406
     12 F         143.7951  138.0361  167.0295 F       1  UNL1       -0.2042
     13 C         142.0307  137.9872  165.1232 C.ar    1  UNL1        0.0362
     14 C         141.6040  138.3730  163.7378 C.ar    1  UNL1        0.0372
     15 BR        140.2663  137.9383  163.2167 Br      1  UNL1       -0.0491
     16 C         142.2858  138.1650  157.7853 C.ar    1  UNL1        0.1927
     17 N         143.0075  136.8520  157.8580 N.ar    1  UNL1       -0.2351
     18 C         143.0987  136.2956  156.4681 C.ar    1  UNL1        0.0775
     19 C         142.4334  137.2647  155.5363 C.ar    1  UNL1        0.0524
     20 S         141.9310  138.4200  156.3504 S.2     1  UNL1       -0.0590
     21 C         143.7422  134.9979  156.0783 C.3     1  UNL1        0.1556
     22 C         143.5604  133.7826  156.9385 C.2     1  UNL1        0.3232
     23 O         142.3644  132.8984  156.7443 O.2     1  UNL1       -0.2497
     24 O         144.5747  133.4514  157.9928 O.3     1  UNL1       -0.4441
     25 C         145.2821  132.1289  157.9638 C.3     1  UNL1        0.2556
     26 C         141.0376  141.7648  162.4204 C.2     1  UNL1        0.3447
     27 O         139.7003  141.6829  163.0947 O.2     1  UNL1       -0.2450
     28 O         142.0629  142.7466  162.9048 O.3     1  UNL1       -0.4455
     29 C         142.2426  142.2471  165.4481 C.3     1  UNL1        0.0513
     30 C         142.0331  143.2217  164.3273 C.3     1  UNL1        0.2089
     31 C         140.1843  142.5363  159.6497 C.3     1  UNL1        0.1405
     32 N         139.3879  142.7324  158.3938 N.3     1  UNL1       -0.2617
     33 C         139.8732  143.6815  157.3385 C.3     1  UNL1        0.1050
     34 C         139.0767  143.8775  156.0826 C.3     1  UNL1        0.1595
     35 O         137.7951  143.1245  155.8820 O.3     1  UNL1       -0.3508
     36 C         137.3098  142.1754  156.9374 C.3     1  UNL1        0.1595
     37 C         138.1062  141.9793  158.1932 C.3     1  UNL1        0.1050
@<TRIPOS>BOND
     1    29    30    1
     2    30    28    1
     3    28    26    1
     4    26    27    2
     5    26     1    1
     6     1     2    2
     7     2    31    1
     8    31    32    1
     9    32    33    1
    10    33    34    1
    11    34    35    1
    12    35    36    1
    13    36    37    1
    14     2     3    1
    15     3     4    1
    16     4    16    1
    17    16    17   ar
    18    17    18   ar
    19    18    21    1
    20    21    22    1
    21    22    23    2
    22    22    24    1
    23    24    25    1
    24    18    19   ar
    25    19    20   ar
    26     4     5    2
    27     5     6    1
    28     6     8    1
    29     8     9   ar
    30     9    10   ar
    31    10    11   ar
    32    11    12    1
    33    11    13   ar
    34    13    14   ar
    35    14    15    1
    36     6     1    1
    37    14     8   ar
    38    37    32    1
    39    20    16   ar
    40     3     7    1
@<TRIPOS>MOLECULE
*****
 37 40 0 0 0
SMALL
GASTEIGER

@<TRIPOS>ATOM
      1 C         142.4403  139.9497  160.2440 C.2     1  UNL1        0.1397
      2 C         143.2024  140.2942  158.9988 C.2     1  UNL1        0.1355
      3 N         143.3911  139.2633  157.9256 N.pl3   1  UNL1       -0.1998
      4 C         142.8175  137.8881  158.0975 C.2     1  UNL1        0.3442
      5 N         142.0553  137.5436  159.3427 N.2     1  UNL1       -0.0580
      6 C         141.8667  138.5745  160.4159 C.3     1  UNL1        0.2692
      7 H         143.8913  139.4894  157.1084 H       1  UNL1        0.2983
      8 C         141.1045  138.2300  161.6611 C.ar    1  UNL1        0.0371
      9 C         141.8282  137.6861  162.8571 C.ar    1  UNL1        0.0030
     10 C         141.0661  137.3416  164.1022 C.ar    1  UNL1        0.0295
     11 C         139.5801  137.5410  164.1514 C.ar    1  UNL1        0.1406
     12 F         138.8180  137.1965  165.3965 F       1  UNL1       -0.2042
     13 C         138.8564  138.0848  162.9554 C.ar    1  UNL1        0.0362
     14 C         139.6186  138.4293  161.7102 C.ar    1  UNL1        0.0372
     15 BR        138.8949  138.9732  160.5142 Br      1  UNL1       -0.0491
     16 C         143.0061  136.8572  157.0243 C.ar    1  UNL1        0.1927
     17 N         143.4120  135.4287  157.2355 N.ar    1  UNL1       -0.2351
     18 C         143.4787  134.7625  155.8932 C.ar    1  UNL1        0.0775
     19 C         143.1141  135.7793  154.8524 C.ar    1  UNL1        0.0524
     20 S         142.8221  137.0739  155.5515 S.2     1  UNL1       -0.0590
     21 C         143.8456  133.3308  155.6367 C.3     1  UNL1        0.1556
     22 C         143.4803  132.2726  156.6350 C.2     1  UNL1        0.3232
     23 O         142.1699  131.5520  156.5186 O.2     1  UNL1       -0.2497
     24 O         144.4255  131.9350  157.7498 O.3     1  UNL1       -0.4441
     25 C         144.7427  130.5011  158.0557 C.3     1  UNL1        0.2556
     26 C         142.2517  140.9806  161.3172 C.2     1  UNL1        0.3447
     27 O         140.9731  141.7614  161.3907 O.2     1  UNL1       -0.2450
     28 O         143.3416  141.2305  162.3169 O.3     1  UNL1       -0.4455
     29 C         144.8046  139.7439  163.8659 C.3     1  UNL1        0.0513
     30 C         144.4426  140.2271  162.4928 C.3     1  UNL1        0.2089
     31 C         143.7761  141.6695  158.8269 C.3     1  UNL1        0.1405
     32 N         144.2390  142.1254  157.4749 N.3     1  UNL1       -0.2617
     33 C         143.2616  142.7330  156.5130 C.3     1  UNL1        0.1050
     34 C         143.7246  143.1889  155.1610 C.3     1  UNL1        0.1595
     35 O         145.1650  143.0371  154.7710 O.3     1  UNL1       -0.3508
     36 C         146.1425  142.4295  155.7330 C.3     1  UNL1        0.1595
     37 C         145.6795  141.9736  157.0849 C.3     1  UNL1        0.1050
@<TRIPOS>BOND
     1    29    30    1
     2    30    28    1
     3    28    26    1
     4    26    27    2
     5    26     1    1
     6     1     2    2
     7     2    31    1
     8    31    32    1
     9    32    33    1
    10    33    34    1
    11    34    35    1
    12    35    36    1
    13    36    37    1
    14     2     3    1
    15     3     4    1
    16     4    16    1
    17    16    17   ar
    18    17    18   ar
    19    18    21    1
    20    21    22    1
    21    22    23    2
    22    22    24    1
    23    24    25    1
    24    18    19   ar
    25    19    20   ar
    26     4     5    2
    27     5     6    1
    28     6     8    1
    29     8     9   ar
    30     9    10   ar
    31    10    11   ar
    32    11    12    1
    33    11    13   ar
    34    13    14   ar
    35    14    15    1
    36     6     1    1
    37    14     8   ar
    38    37    32    1
    39    20    16   ar
    40     3     7    1
@<TRIPOS>MOLECULE
*****
 37 40 0 0 0
SMALL
GASTEIGER

@<TRIPOS>ATOM
      1 C         141.2310  140.8242  161.3933 C.2     1  UNL1        0.1397
      2 C         140.8194  141.2271  160.0083 C.2     1  UNL1        0.1355
      3 N         141.2628  140.4146  158.8279 N.pl3   1  UNL1       -0.1998
      4 C         142.1179  139.1994  159.0325 C.2     1  UNL1        0.3442
      5 N         142.5295  138.7965  160.4175 N.2     1  UNL1       -0.0580
      6 C         142.0861  139.6089  161.5979 C.3     1  UNL1        0.2692
      7 H         140.9926  140.6791  157.9189 H       1  UNL1        0.2983
      8 C         142.4977  139.2060  162.9829 C.ar    1  UNL1        0.0371
      9 C         143.7314  139.7953  163.5999 C.ar    1  UNL1        0.0030
     10 C         144.1431  139.3925  164.9849 C.ar    1  UNL1        0.0295
     11 C         143.3211  138.4002  165.7529 C.ar    1  UNL1        0.1406
     12 F         143.7328  137.9973  167.1379 F       1  UNL1       -0.2042
     13 C         142.0874  137.8109  165.1359 C.ar    1  UNL1        0.0362
     14 C         141.6757  138.2138  163.7509 C.ar    1  UNL1        0.0372
     15 BR        140.4420  137.6245  163.1339 Br      1  UNL1       -0.0491
     16 C         142.5613  138.3869  157.8521 C.ar    1  UNL1        0.1927
     17 N         142.9139  136.9290  157.8676 N.ar    1  UNL1       -0.2351
     18 C         143.3005  136.5308  156.4740 C.ar    1  UNL1        0.0775
     19 C         143.1868  137.7426  155.5973 C.ar    1  UNL1        0.0524
     20 S         142.7299  138.8897  156.4490 S.2     1  UNL1       -0.0590
     21 C         143.7261  135.1613  156.0344 C.3     1  UNL1        0.1556
     22 C         143.4708  133.9768  156.9186 C.2     1  UNL1        0.3232
     23 O         144.4628  133.6062  157.9809 O.2     1  UNL1       -0.2497
     24 O         142.2235  133.1628  156.7404 O.3     1  UNL1       -0.4441
     25 C         141.9697  132.4535  155.4432 C.3     1  UNL1        0.2556
     26 C         140.7876  141.6367  162.5737 C.2     1  UNL1        0.3447
     27 O         141.6431  142.7631  163.0729 O.2     1  UNL1       -0.2450
     28 O         139.4886  141.3227  163.2549 O.3     1  UNL1       -0.4455
     29 C         138.4783  140.0677  165.2931 C.3     1  UNL1        0.0513
     30 C         139.4619  141.0502  164.7297 C.3     1  UNL1        0.2089
     31 C         139.9643  142.4424  159.8037 C.3     1  UNL1        0.1405
     32 N         140.3404  143.4579  158.7658 N.3     1  UNL1       -0.2617
     33 C         139.5729  143.5351  157.4793 C.3     1  UNL1        0.1050
     34 C         139.9491  144.5507  156.4413 C.3     1  UNL1        0.1595
     35 O         141.0926  145.4890  156.6899 O.3     1  UNL1       -0.3508
     36 C         141.8600  145.4119  157.9764 C.3     1  UNL1        0.1595
     37 C         141.4839  144.3964  159.0143 C.3     1  UNL1        0.1050
@<TRIPOS>BOND
     1    29    30    1
     2    30    28    1
     3    28    26    1
     4    26    27    2
     5    26     1    1
     6     1     2    2
     7     2    31    1
     8    31    32    1
     9    32    33    1
    10    33    34    1
    11    34    35    1
    12    35    36    1
    13    36    37    1
    14     2     3    1
    15     3     4    1
    16     4    16    1
    17    16    17   ar
    18    17    18   ar
    19    18    21    1
    20    21    22    1
    21    22    23    2
    22    22    24    1
    23    24    25    1
    24    18    19   ar
    25    19    20   ar
    26     4     5    2
    27     5     6    1
    28     6     8    1
    29     8     9   ar
    30     9    10   ar
    31    10    11   ar
    32    11    12    1
    33    11    13   ar
    34    13    14   ar
    35    14    15    1
    36     6     1    1
    37    14     8   ar
    38    37    32    1
    39    20    16   ar
    40     3     7    1
