@<TRIPOS>MOLECULE
*****
 31 35 0 0 0
SMALL
GASTEIGER

@<TRIPOS>ATOM
      1 C         140.7617  139.4597  163.0932 C.2     1  UNL1        0.3094
      2 N         139.9003  138.3528  162.5615 N.2     1  UNL1       -0.0400
      3 C         138.9704  137.6185  163.4813 C.2     1  UNL1        0.2366
      4 C         138.9018  137.9912  164.9326 C.2     1  UNL1        0.0661
      5 C         139.7632  139.0981  165.4642 C.2     1  UNL1        0.0782
      6 N         139.9111  139.6837  166.8373 N.2     1  UNL1       -0.2489
      7 C         140.9326  140.7798  166.7661 C.2     1  UNL1        0.0777
      8 C         141.4159  140.8718  165.3491 C.2     1  UNL1        0.0107
      9 C         140.6931  139.8324  164.5445 C.3     1  UNL1        0.1691
     10 C         141.3903  141.6341  167.9111 C.ar    1  UNL1        0.0218
     11 C         140.4283  142.5714  168.5789 C.ar    1  UNL1        0.0313
     12 C         140.8861  143.4256  169.7238 C.ar    1  UNL1        0.1424
     13 F         139.9241  144.3630  170.3917 F       1  UNL1       -0.2041
     14 C         142.3058  143.3425  170.2008 C.ar    1  UNL1        0.0592
     15 C         143.2677  142.4052  169.5329 C.ar    1  UNL1        0.1424
     16 F         144.6874  142.3221  170.0100 F       1  UNL1       -0.2041
     17 C         142.8100  141.5510  168.3881 C.ar    1  UNL1        0.0313
     18 C         143.5517  141.6628  160.3340 C.3     1  UNL1        0.0242
     19 C         142.1396  142.1377  160.5086 C.3     1  UNL1        0.0523
     20 C         141.2097  141.4034  161.4283 C.3     1  UNL1        0.2021
     21 N         141.6918  140.1941  162.1734 N.pl3   1  UNL1       -0.1935
     22 C         143.1038  139.7191  161.9988 C.3     1  UNL1        0.2021
     23 C         144.0338  140.4534  161.0791 C.3     1  UNL1        0.0523
     24 C         144.4817  142.3971  159.4143 C.3     1  UNL1        0.0724
     25 C         145.5430  140.2775  153.9024 C.3     1  UNL1        0.0897
     26 N         145.2777  140.8074  155.2804 N.3     1  UNL1       -0.2691
     27 C         144.0740  140.3412  156.0442 C.3     1  UNL1        0.0897
     28 C         143.8086  140.8711  157.4223 C.3     1  UNL1        0.0897
     29 N         144.7470  141.8672  158.0363 N.3     1  UNL1       -0.2703
     30 C         145.9508  142.3334  157.2724 C.3     1  UNL1        0.0897
     31 C         146.2162  141.8035  155.8945 C.3     1  UNL1        0.0897
@<TRIPOS>BOND
     1    25    26    1
     2    26    27    1
     3    27    28    1
     4    28    29    1
     5    29    24    1
     6    24    18    1
     7    18    19    1
     8    19    20    1
     9    20    21    1
    10    21     1    1
    11     1     2    2
    12     2     3    1
    13     3     4    2
    14     4     5    1
    15     5     6    2
    16     6     7    1
    17     7    10    1
    18    10    11   ar
    19    11    12   ar
    20    12    13    1
    21    12    14   ar
    22    14    15   ar
    23    15    16    1
    24    15    17   ar
    25     7     8    2
    26     8     9    1
    27    21    22    1
    28    22    23    1
    29    29    30    1
    30    30    31    1
    31    31    26    1
    32    23    18    1
    33     9     1    1
    34     9     5    1
    35    17    10   ar
@<TRIPOS>MOLECULE
*****
 31 35 0 0 0
SMALL
GASTEIGER

@<TRIPOS>ATOM
      1 C         139.8810  140.0288  163.1304 C.2     1  UNL1        0.3094
      2 N         139.2521  138.7643  162.6252 N.2     1  UNL1       -0.0400
      3 C         138.8955  137.6685  163.5853 C.2     1  UNL1        0.2366
      4 C         139.1679  137.8372  165.0507 C.2     1  UNL1        0.0661
      5 C         139.7969  139.1017  165.5559 C.2     1  UNL1        0.0782
      6 N         140.1816  139.5501  166.9346 N.2     1  UNL1       -0.2489
      7 C         140.7760  140.9231  166.8266 C.2     1  UNL1        0.0777
      8 C         140.7586  141.3233  165.3811 C.2     1  UNL1        0.0107
      9 C         140.1534  140.1976  164.5958 C.3     1  UNL1        0.1691
     10 C         141.2964  141.7506  167.9643 C.ar    1  UNL1        0.0218
     11 C         140.4092  142.7671  168.6197 C.ar    1  UNL1        0.0313
     12 C         140.9296  143.5945  169.7574 C.ar    1  UNL1        0.1424
     13 F         140.0423  144.6110  170.4129 F       1  UNL1       -0.2041
     14 C         142.3373  143.4055  170.2398 C.ar    1  UNL1        0.0592
     15 C         143.2246  142.3891  169.5844 C.ar    1  UNL1        0.1424
     16 F         144.6323  142.2002  170.0667 F       1  UNL1       -0.2041
     17 C         142.7042  141.5617  168.4467 C.ar    1  UNL1        0.0313
     18 C         140.9508  143.3166  160.2499 C.3     1  UNL1        0.0242
     19 C         139.7529  143.4606  161.1413 C.3     1  UNL1        0.0523
     20 C         139.3964  142.3648  162.1014 C.3     1  UNL1        0.2021
     21 N         140.2376  141.1248  162.1702 N.pl3   1  UNL1       -0.1935
     22 C         141.4354  140.9806  161.2789 C.3     1  UNL1        0.2021
     23 C         141.7920  142.0766  160.3187 C.3     1  UNL1        0.0523
     24 C         141.3073  144.4124  159.2898 C.3     1  UNL1        0.0724
     25 C         137.7554  145.5580  154.5918 C.3     1  UNL1        0.0897
     26 N         138.6434  145.2716  155.7662 N.3     1  UNL1       -0.2691
     27 C         139.4415  146.3777  156.3903 C.3     1  UNL1        0.0897
     28 C         140.3295  146.0913  157.5648 C.3     1  UNL1        0.0897
     29 N         140.4193  144.6988  158.1153 N.3     1  UNL1       -0.2703
     30 C         139.6211  143.5927  157.4912 C.3     1  UNL1        0.0897
     31 C         138.7332  143.8791  156.3167 C.3     1  UNL1        0.0897
@<TRIPOS>BOND
     1    25    26    1
     2    26    27    1
     3    27    28    1
     4    28    29    1
     5    29    24    1
     6    24    18    1
     7    18    19    1
     8    19    20    1
     9    20    21    1
    10    21     1    1
    11     1     2    2
    12     2     3    1
    13     3     4    2
    14     4     5    1
    15     5     6    2
    16     6     7    1
    17     7    10    1
    18    10    11   ar
    19    11    12   ar
    20    12    13    1
    21    12    14   ar
    22    14    15   ar
    23    15    16    1
    24    15    17   ar
    25     7     8    2
    26     8     9    1
    27    21    22    1
    28    22    23    1
    29    29    30    1
    30    30    31    1
    31    31    26    1
    32    23    18    1
    33     9     1    1
    34     9     5    1
    35    17    10   ar
@<TRIPOS>MOLECULE
*****
 31 35 0 0 0
SMALL
GASTEIGER

@<TRIPOS>ATOM
      1 C         140.0398  139.8443  163.1809 C.2     1  UNL1        0.3094
      2 N         139.3429  138.6044  162.7047 N.2     1  UNL1       -0.0400
      3 C         138.8465  137.5950  163.6970 C.2     1  UNL1        0.2366
      4 C         139.0472  137.8254  165.1655 C.2     1  UNL1        0.0661
      5 C         139.7442  139.0653  165.6418 C.2     1  UNL1        0.0782
      6 N         140.0837  139.5607  167.0163 N.2     1  UNL1       -0.2489
      7 C         140.7899  140.8764  166.8735 C.2     1  UNL1        0.0777
      8 C         140.8868  141.1941  165.4107 C.2     1  UNL1        0.0107
      9 C         140.2405  140.0747  164.6495 C.3     1  UNL1        0.1691
     10 C         141.3082  141.7253  167.9964 C.ar    1  UNL1        0.0218
     11 C         142.7422  141.6127  168.4215 C.ar    1  UNL1        0.0313
     12 C         143.2604  142.4616  169.5443 C.ar    1  UNL1        0.1424
     13 F         144.6946  142.3490  169.9695 F       1  UNL1       -0.2041
     14 C         142.3446  143.4231  170.2420 C.ar    1  UNL1        0.0592
     15 C         140.9106  143.5357  169.8169 C.ar    1  UNL1        0.1424
     16 F         139.9947  144.4972  170.5146 F       1  UNL1       -0.2041
     17 C         140.3924  142.6868  168.6941 C.ar    1  UNL1        0.0313
     18 C         141.5289  142.8727  160.2041 C.3     1  UNL1        0.0242
     19 C         142.3158  141.6211  160.4582 C.3     1  UNL1        0.0523
     20 C         141.8194  140.6117  161.4505 C.3     1  UNL1        0.2021
     21 N         140.5362  140.8538  162.1886 N.pl3   1  UNL1       -0.1935
     22 C         139.7494  142.1053  161.9345 C.3     1  UNL1        0.2021
     23 C         140.2458  143.1148  160.9422 C.3     1  UNL1        0.0523
     24 C         142.0253  143.8822  159.2118 C.3     1  UNL1        0.0724
     25 C         138.3143  146.0482  155.0242 C.3     1  UNL1        0.0897
     26 N         139.2421  145.5067  156.0711 N.3     1  UNL1       -0.2691
     27 C         139.9628  146.4455  156.9925 C.3     1  UNL1        0.0897
     28 C         140.8906  145.9040  158.0395 C.3     1  UNL1        0.0897
     29 N         141.0976  144.4237  158.1649 N.3     1  UNL1       -0.2703
     30 C         140.3768  143.4848  157.2434 C.3     1  UNL1        0.0897
     31 C         139.4490  144.0264  156.1966 C.3     1  UNL1        0.0897
@<TRIPOS>BOND
     1    25    26    1
     2    26    27    1
     3    27    28    1
     4    28    29    1
     5    29    24    1
     6    24    18    1
     7    18    19    1
     8    19    20    1
     9    20    21    1
    10    21     1    1
    11     1     2    2
    12     2     3    1
    13     3     4    2
    14     4     5    1
    15     5     6    2
    16     6     7    1
    17     7    10    1
    18    10    11   ar
    19    11    12   ar
    20    12    13    1
    21    12    14   ar
    22    14    15   ar
    23    15    16    1
    24    15    17   ar
    25     7     8    2
    26     8     9    1
    27    21    22    1
    28    22    23    1
    29    29    30    1
    30    30    31    1
    31    31    26    1
    32    23    18    1
    33     9     1    1
    34     9     5    1
    35    17    10   ar
@<TRIPOS>MOLECULE
*****
 31 35 0 0 0
SMALL
GASTEIGER

@<TRIPOS>ATOM
      1 C         140.6641  139.5479  163.0753 C.2     1  UNL1        0.3094
      2 N         139.8336  138.4128  162.5543 N.2     1  UNL1       -0.0400
      3 C         138.9743  137.6194  163.4935 C.2     1  UNL1        0.2366
      4 C         138.9456  137.9611  164.9538 C.2     1  UNL1        0.0661
      5 C         139.7762  139.0963  165.4748 C.2     1  UNL1        0.0782
      6 N         139.9510  139.6621  166.8529 N.2     1  UNL1       -0.2489
      7 C         140.9183  140.8053  166.7655 C.2     1  UNL1        0.0777
      8 C         141.3413  140.9459  165.3333 C.2     1  UNL1        0.0107
      9 C         140.6354  139.8897  164.5356 C.3     1  UNL1        0.1691
     10 C         141.3812  141.6580  167.9094 C.ar    1  UNL1        0.0218
     11 C         142.7985  141.5619  168.3910 C.ar    1  UNL1        0.0313
     12 C         143.2614  142.4146  169.5349 C.ar    1  UNL1        0.1424
     13 F         144.6788  142.3185  170.0165 F       1  UNL1       -0.2041
     14 C         142.3070  143.3634  170.1972 C.ar    1  UNL1        0.0592
     15 C         140.8897  143.4596  169.7157 C.ar    1  UNL1        0.1424
     16 F         139.9352  144.4084  170.3781 F       1  UNL1       -0.2041
     17 C         140.4268  142.6069  168.5718 C.ar    1  UNL1        0.0313
     18 C         143.2421  141.9282  160.2577 C.3     1  UNL1        0.0242
     19 C         143.7754  140.6738  160.8839 C.3     1  UNL1        0.0523
     20 C         142.9161  139.8804  161.8231 C.3     1  UNL1        0.2021
     21 N         141.5234  140.3414  162.1361 N.pl3   1  UNL1       -0.1935
     22 C         140.9901  141.5957  161.5100 C.3     1  UNL1        0.2021
     23 C         141.8494  142.3892  160.5707 C.3     1  UNL1        0.0523
     24 C         144.1014  142.7216  159.3185 C.3     1  UNL1        0.0724
     25 C         145.5892  140.4488  153.9688 C.3     1  UNL1        0.0897
     26 N         145.2172  141.0170  155.3062 N.3     1  UNL1       -0.2691
     27 C         146.2305  141.7836  156.1034 C.3     1  UNL1        0.0897
     28 C         145.8585  142.3518  157.4409 C.3     1  UNL1        0.0897
     29 N         144.4733  142.1534  157.9811 N.3     1  UNL1       -0.2703
     30 C         143.4600  141.3868  157.1838 C.3     1  UNL1        0.0897
     31 C         143.8320  140.8186  155.8464 C.3     1  UNL1        0.0897
@<TRIPOS>BOND
     1    25    26    1
     2    26    27    1
     3    27    28    1
     4    28    29    1
     5    29    24    1
     6    24    18    1
     7    18    19    1
     8    19    20    1
     9    20    21    1
    10    21     1    1
    11     1     2    2
    12     2     3    1
    13     3     4    2
    14     4     5    1
    15     5     6    2
    16     6     7    1
    17     7    10    1
    18    10    11   ar
    19    11    12   ar
    20    12    13    1
    21    12    14   ar
    22    14    15   ar
    23    15    16    1
    24    15    17   ar
    25     7     8    2
    26     8     9    1
    27    21    22    1
    28    22    23    1
    29    29    30    1
    30    30    31    1
    31    31    26    1
    32    23    18    1
    33     9     1    1
    34     9     5    1
    35    17    10   ar
@<TRIPOS>MOLECULE
*****
 31 35 0 0 0
SMALL
GASTEIGER

@<TRIPOS>ATOM
      1 C         139.7979  142.2083  162.8773 C.2     1  UNL1        0.3094
      2 N         138.7835  143.1266  162.2629 N.2     1  UNL1       -0.0400
      3 C         138.0860  144.1484  163.1111 C.2     1  UNL1        0.2366
      4 C         138.4030  144.2519  164.5735 C.2     1  UNL1        0.0661
      5 C         139.4174  143.3336  165.1879 C.2     1  UNL1        0.0782
      6 N         139.9329  143.2018  166.5903 N.2     1  UNL1       -0.2489
      7 C         140.9491  142.0986  166.6090 C.2     1  UNL1        0.0777
      8 C         141.0616  141.5485  165.2181 C.2     1  UNL1        0.0107
      9 C         140.1149  142.3117  164.3398 C.3     1  UNL1        0.1691
     10 C         141.7178  141.6281  167.8081 C.ar    1  UNL1        0.0218
     11 C         142.8212  142.4741  168.3709 C.ar    1  UNL1        0.0313
     12 C         143.5898  142.0036  169.5700 C.ar    1  UNL1        0.1424
     13 F         144.6933  142.8495  170.1328 F       1  UNL1       -0.2041
     14 C         143.2550  140.6871  170.2062 C.ar    1  UNL1        0.0592
     15 C         142.1516  139.8412  169.6435 C.ar    1  UNL1        0.1424
     16 F         141.8168  138.5247  170.2798 F       1  UNL1       -0.2041
     17 C         141.3830  140.3117  168.4444 C.ar    1  UNL1        0.0313
     18 C         141.8906  139.1427  160.3330 C.3     1  UNL1        0.0242
     19 C         142.2253  140.5971  160.1824 C.3     1  UNL1        0.0523
     20 C         141.5278  141.6189  161.0305 C.3     1  UNL1        0.2021
     21 N         140.4955  141.1864  162.0292 N.pl3   1  UNL1       -0.1935
     22 C         140.1608  139.7320  162.1798 C.3     1  UNL1        0.2021
     23 C         140.8584  138.7101  161.3317 C.3     1  UNL1        0.0523
     24 C         142.5882  138.1209  159.4849 C.3     1  UNL1        0.0724
     25 C         140.1683  136.3899  154.2746 C.3     1  UNL1        0.0897
     26 N         140.7733  136.8226  155.5771 N.3     1  UNL1       -0.2691
     27 C         142.1561  136.3747  155.9474 C.3     1  UNL1        0.0897
     28 C         142.7611  136.8074  157.2500 C.3     1  UNL1        0.0897
     29 N         141.9832  137.6881  158.1823 N.3     1  UNL1       -0.2703
     30 C         140.6003  138.1361  157.8120 C.3     1  UNL1        0.0897
     31 C         139.9954  137.7033  156.5095 C.3     1  UNL1        0.0897
@<TRIPOS>BOND
     1    25    26    1
     2    26    27    1
     3    27    28    1
     4    28    29    1
     5    29    24    1
     6    24    18    1
     7    18    19    1
     8    19    20    1
     9    20    21    1
    10    21     1    1
    11     1     2    2
    12     2     3    1
    13     3     4    2
    14     4     5    1
    15     5     6    2
    16     6     7    1
    17     7    10    1
    18    10    11   ar
    19    11    12   ar
    20    12    13    1
    21    12    14   ar
    22    14    15   ar
    23    15    16    1
    24    15    17   ar
    25     7     8    2
    26     8     9    1
    27    21    22    1
    28    22    23    1
    29    29    30    1
    30    30    31    1
    31    31    26    1
    32    23    18    1
    33     9     1    1
    34     9     5    1
    35    17    10   ar
@<TRIPOS>MOLECULE
*****
 31 35 0 0 0
SMALL
GASTEIGER

@<TRIPOS>ATOM
      1 C         139.6672  140.3130  162.9284 C.2     1  UNL1        0.3094
      2 N         139.1123  139.1365  162.1817 N.2     1  UNL1       -0.0400
      3 C         138.7216  137.8932  162.9244 C.2     1  UNL1        0.2366
      4 C         138.8860  137.8265  164.4139 C.2     1  UNL1        0.0661
      5 C         139.4409  139.0031  165.1606 C.2     1  UNL1        0.0782
      6 N         139.7152  139.2284  166.6180 N.2     1  UNL1       -0.2489
      7 C         140.2754  140.6109  166.7760 C.2     1  UNL1        0.0777
      8 C         140.3473  141.2401  165.4163 C.2     1  UNL1        0.0107
      9 C         139.8316  140.2463  164.4179 C.3     1  UNL1        0.1691
     10 C         140.6907  141.2517  168.0672 C.ar    1  UNL1        0.0218
     11 C         141.4651  140.4628  169.0810 C.ar    1  UNL1        0.0313
     12 C         141.8804  141.1036  170.3720 C.ar    1  UNL1        0.1424
     13 F         142.6549  140.3147  171.3859 F       1  UNL1       -0.2041
     14 C         141.5212  142.5333  170.6493 C.ar    1  UNL1        0.0592
     15 C         140.7468  143.3222  169.6355 C.ar    1  UNL1        0.1424
     16 F         140.3876  144.7519  169.9128 F       1  UNL1       -0.2041
     17 C         140.3315  142.6814  168.3445 C.ar    1  UNL1        0.0313
     18 C         140.8391  144.0430  160.7003 C.3     1  UNL1        0.0242
     19 C         139.3938  143.7657  160.9908 C.3     1  UNL1        0.0523
     20 C         139.0032  142.5224  161.7335 C.3     1  UNL1        0.2021
     21 N         140.0579  141.5564  162.1857 N.pl3   1  UNL1       -0.1935
     22 C         141.5031  141.8336  161.8952 C.3     1  UNL1        0.2021
     23 C         141.8937  143.0770  161.1525 C.3     1  UNL1        0.0523
     24 C         141.2297  145.2863  159.9576 C.3     1  UNL1        0.0724
     25 C         141.3039  145.2982  153.9581 C.3     1  UNL1        0.0897
     26 N         141.2854  145.2952  155.4579 N.3     1  UNL1       -0.2691
     27 C         140.2317  146.0661  156.1965 C.3     1  UNL1        0.0897
     28 C         140.2131  146.0632  157.6964 C.3     1  UNL1        0.0897
     29 N         141.2482  145.2893  158.4577 N.3     1  UNL1       -0.2703
     30 C         142.3019  144.5183  157.7191 C.3     1  UNL1        0.0897
     31 C         142.3205  144.5213  156.2193 C.3     1  UNL1        0.0897
@<TRIPOS>BOND
     1    25    26    1
     2    26    27    1
     3    27    28    1
     4    28    29    1
     5    29    24    1
     6    24    18    1
     7    18    19    1
     8    19    20    1
     9    20    21    1
    10    21     1    1
    11     1     2    2
    12     2     3    1
    13     3     4    2
    14     4     5    1
    15     5     6    2
    16     6     7    1
    17     7    10    1
    18    10    11   ar
    19    11    12   ar
    20    12    13    1
    21    12    14   ar
    22    14    15   ar
    23    15    16    1
    24    15    17   ar
    25     7     8    2
    26     8     9    1
    27    21    22    1
    28    22    23    1
    29    29    30    1
    30    30    31    1
    31    31    26    1
    32    23    18    1
    33     9     1    1
    34     9     5    1
    35    17    10   ar
@<TRIPOS>MOLECULE
*****
 31 35 0 0 0
SMALL
GASTEIGER

@<TRIPOS>ATOM
      1 C         142.9169  138.3381  157.4684 C.2     1  UNL1        0.3094
      2 N         143.5651  139.6109  157.0105 N.2     1  UNL1       -0.0400
      3 C         144.4847  139.6000  155.8255 C.2     1  UNL1        0.2366
      4 C         144.7559  138.3164  155.0984 C.2     1  UNL1        0.0661
      5 C         144.1076  137.0436  155.5563 C.2     1  UNL1        0.0782
      6 N         144.1847  135.6365  155.0423 N.2     1  UNL1       -0.2489
      7 C         143.3128  134.7777  155.9097 C.2     1  UNL1        0.0777
      8 C         142.6968  135.6540  156.9597 C.2     1  UNL1        0.0107
      9 C         143.1881  137.0545  156.7413 C.3     1  UNL1        0.1691
     10 C         143.0951  133.3017  155.7542 C.ar    1  UNL1        0.0218
     11 C         141.7195  132.7715  155.4776 C.ar    1  UNL1        0.0313
     12 C         141.5019  131.2956  155.3221 C.ar    1  UNL1        0.1424
     13 F         140.1262  130.7653  155.0455 F       1  UNL1       -0.2041
     14 C         142.6599  130.3499  155.4433 C.ar    1  UNL1        0.0592
     15 C         144.0355  130.8801  155.7200 C.ar    1  UNL1        0.1424
     16 F         145.1934  129.9343  155.8412 F       1  UNL1       -0.2041
     17 C         144.2531  132.3560  155.8754 C.ar    1  UNL1        0.0313
     18 C         140.1581  138.3705  161.0235 C.3     1  UNL1        0.0242
     19 C         139.6181  138.6515  159.6525 C.3     1  UNL1        0.0523
     20 C         140.5377  138.6406  158.4676 C.3     1  UNL1        0.2021
     21 N         141.9973  138.3489  158.6535 N.pl3   1  UNL1       -0.1935
     22 C         142.5373  138.0680  160.0244 C.3     1  UNL1        0.2021
     23 C         141.6177  138.0788  161.2095 C.3     1  UNL1        0.0523
     24 C         139.2385  138.3814  162.2085 C.3     1  UNL1        0.0724
     25 C         137.7716  143.5802  164.8199 C.3     1  UNL1        0.0897
     26 N         138.1383  142.2805  164.1671 N.3     1  UNL1       -0.2691
     27 C         137.3875  141.8113  162.9563 C.3     1  UNL1        0.0897
     28 C         137.7542  140.5116  162.3034 C.3     1  UNL1        0.0897
     29 N         138.8718  139.6811  162.8613 N.3     1  UNL1       -0.2703
     30 C         139.6226  140.1503  164.0722 C.3     1  UNL1        0.0897
     31 C         139.2559  141.4500  164.7251 C.3     1  UNL1        0.0897
@<TRIPOS>BOND
     1    25    26    1
     2    26    27    1
     3    27    28    1
     4    28    29    1
     5    29    24    1
     6    24    18    1
     7    18    19    1
     8    19    20    1
     9    20    21    1
    10    21     1    1
    11     1     2    2
    12     2     3    1
    13     3     4    2
    14     4     5    1
    15     5     6    2
    16     6     7    1
    17     7    10    1
    18    10    11   ar
    19    11    12   ar
    20    12    13    1
    21    12    14   ar
    22    14    15   ar
    23    15    16    1
    24    15    17   ar
    25     7     8    2
    26     8     9    1
    27    21    22    1
    28    22    23    1
    29    29    30    1
    30    30    31    1
    31    31    26    1
    32    23    18    1
    33     9     1    1
    34     9     5    1
    35    17    10   ar
@<TRIPOS>MOLECULE
*****
 31 35 0 0 0
SMALL
GASTEIGER

@<TRIPOS>ATOM
      1 C         142.5008  139.1072  157.1915 C.2     1  UNL1        0.3094
      2 N         143.0872  140.3322  156.5547 N.2     1  UNL1       -0.0400
      3 C         144.1464  140.1960  155.5014 C.2     1  UNL1        0.2366
      4 C         144.6193  138.8348  155.0849 C.2     1  UNL1        0.0661
      5 C         144.0329  137.6098  155.7217 C.2     1  UNL1        0.0782
      6 N         144.2979  136.1476  155.5172 N.2     1  UNL1       -0.2489
      7 C         143.4024  135.3801  156.4441 C.2     1  UNL1        0.0777
      8 C         142.5840  136.3680  157.2215 C.2     1  UNL1        0.0107
      9 C         142.9737  137.7460  156.7750 C.3     1  UNL1        0.1691
     10 C         143.3369  133.8869  156.5713 C.ar    1  UNL1        0.0218
     11 C         144.3350  133.1624  157.4250 C.ar    1  UNL1        0.0313
     12 C         144.2695  131.6693  157.5521 C.ar    1  UNL1        0.1424
     13 F         145.2675  130.9447  158.4059 F       1  UNL1       -0.2041
     14 C         143.2059  130.9007  156.8255 C.ar    1  UNL1        0.0592
     15 C         142.2078  131.6252  155.9718 C.ar    1  UNL1        0.1424
     16 F         141.1442  130.8565  155.2452 F       1  UNL1       -0.2041
     17 C         142.2733  133.1183  155.8446 C.ar    1  UNL1        0.0313
     18 C         139.3231  139.5157  160.3515 C.3     1  UNL1        0.0242
     19 C         140.7608  139.3582  160.7495 C.3     1  UNL1        0.0523
     20 C         141.8200  139.2221  159.6961 C.3     1  UNL1        0.2021
     21 N         141.4415  139.2434  158.2448 N.pl3   1  UNL1       -0.1935
     22 C         140.0039  139.4009  157.8468 C.3     1  UNL1        0.2021
     23 C         138.9447  139.5371  158.9001 C.3     1  UNL1        0.0523
     24 C         138.2639  139.6519  161.4048 C.3     1  UNL1        0.0724
     25 C         138.2047  144.4582  164.9958 C.3     1  UNL1        0.0897
     26 N         138.2195  143.2567  164.0981 N.3     1  UNL1       -0.2691
     27 C         138.5147  141.9000  164.6657 C.3     1  UNL1        0.0897
     28 C         138.5295  140.6983  163.7679 C.3     1  UNL1        0.0897
     29 N         138.2491  140.8535  162.3025 N.3     1  UNL1       -0.2703
     30 C         137.9538  142.2102  161.7349 C.3     1  UNL1        0.0897
     31 C         137.9390  143.4118  162.6327 C.3     1  UNL1        0.0897
@<TRIPOS>BOND
     1    25    26    1
     2    26    27    1
     3    27    28    1
     4    28    29    1
     5    29    24    1
     6    24    18    1
     7    18    19    1
     8    19    20    1
     9    20    21    1
    10    21     1    1
    11     1     2    2
    12     2     3    1
    13     3     4    2
    14     4     5    1
    15     5     6    2
    16     6     7    1
    17     7    10    1
    18    10    11   ar
    19    11    12   ar
    20    12    13    1
    21    12    14   ar
    22    14    15   ar
    23    15    16    1
    24    15    17   ar
    25     7     8    2
    26     8     9    1
    27    21    22    1
    28    22    23    1
    29    29    30    1
    30    30    31    1
    31    31    26    1
    32    23    18    1
    33     9     1    1
    34     9     5    1
    35    17    10   ar
@<TRIPOS>MOLECULE
*****
 31 35 0 0 0
SMALL
GASTEIGER

@<TRIPOS>ATOM
      1 C         140.6484  144.0212  160.6635 C.2     1  UNL1        0.3094
      2 N         140.4278  145.5041  160.6169 N.2     1  UNL1       -0.0400
      3 C         139.7008  146.1897  161.7355 C.2     1  UNL1        0.2366
      4 C         139.1944  145.3924  162.9008 C.2     1  UNL1        0.0661
      5 C         139.4150  143.9095  162.9474 C.2     1  UNL1        0.0782
      6 N         139.0335  142.8692  163.9585 N.2     1  UNL1       -0.2489
      7 C         139.5247  141.5407  163.4647 C.2     1  UNL1        0.0777
      8 C         140.2098  141.7598  162.1485 C.2     1  UNL1        0.0107
      9 C         140.1420  143.2239  161.8288 C.3     1  UNL1        0.1691
     10 C         139.3597  140.2241  164.1645 C.ar    1  UNL1        0.0218
     11 C         140.1980  139.0485  163.7580 C.ar    1  UNL1        0.0313
     12 C         140.0330  137.7321  164.4577 C.ar    1  UNL1        0.1424
     13 F         140.8712  136.5564  164.0513 F       1  UNL1       -0.2041
     14 C         139.0297  137.5912  165.5639 C.ar    1  UNL1        0.0592
     15 C         138.1914  138.7668  165.9703 C.ar    1  UNL1        0.1424
     16 F         137.1881  138.6259  167.0765 F       1  UNL1       -0.2041
     17 C         138.3564  140.0833  165.2706 C.ar    1  UNL1        0.0313
     18 C         142.8295  141.9642  157.3076 C.3     1  UNL1        0.0242
     19 C         143.5536  142.3015  158.5772 C.3     1  UNL1        0.0523
     20 C         142.8266  142.9871  159.6958 C.3     1  UNL1        0.2021
     21 N         141.3754  143.3355  159.5448 N.pl3   1  UNL1       -0.1935
     22 C         140.6513  142.9983  158.2752 C.3     1  UNL1        0.2021
     23 C         141.3784  142.3126  157.1566 C.3     1  UNL1        0.0523
     24 C         143.5565  141.2786  156.1890 C.3     1  UNL1        0.0724
     25 C         143.8740  135.2888  156.0440 C.3     1  UNL1        0.0897
     26 N         143.7947  136.7862  156.0803 N.3     1  UNL1       -0.2691
     27 C         142.8495  137.4645  157.0272 C.3     1  UNL1        0.0897
     28 C         142.7702  138.9620  157.0635 C.3     1  UNL1        0.0897
     29 N         143.6359  139.7812  156.1528 N.3     1  UNL1       -0.2703
     30 C         144.5811  139.1029  155.2058 C.3     1  UNL1        0.0897
     31 C         144.6604  137.6054  155.1696 C.3     1  UNL1        0.0897
@<TRIPOS>BOND
     1    25    26    1
     2    26    27    1
     3    27    28    1
     4    28    29    1
     5    29    24    1
     6    24    18    1
     7    18    19    1
     8    19    20    1
     9    20    21    1
    10    21     1    1
    11     1     2    2
    12     2     3    1
    13     3     4    2
    14     4     5    1
    15     5     6    2
    16     6     7    1
    17     7    10    1
    18    10    11   ar
    19    11    12   ar
    20    12    13    1
    21    12    14   ar
    22    14    15   ar
    23    15    16    1
    24    15    17   ar
    25     7     8    2
    26     8     9    1
    27    21    22    1
    28    22    23    1
    29    29    30    1
    30    30    31    1
    31    31    26    1
    32    23    18    1
    33     9     1    1
    34     9     5    1
    35    17    10   ar
