@<TRIPOS>MOLECULE
*****
 24 25 0 0 0
SMALL
GASTEIGER

@<TRIPOS>ATOM
      1 C         140.0816  140.1163  167.8719 C.ar    1  UNL1        0.1327
      2 N         138.8432  139.6230  168.5594 N.ar    1  UNL1       -0.1993
      3 C         138.5764  140.0009  169.9863 C.ar    1  UNL1        0.2148
      4 N         137.3379  139.5075  170.6739 N.pl3   1  UNL1       -0.3274
      5 N         139.5482  140.8721  170.7257 N.ar    1  UNL1       -0.2138
      6 C         140.7867  141.3654  170.0381 C.ar    1  UNL1        0.0891
      7 C         141.7585  142.2366  170.7775 C.ar    1  UNL1        0.0489
      8 C         142.9970  142.7299  170.0899 C.ar    1  UNL1        0.1416
      9 F         143.9688  143.6011  170.8293 F       1  UNL1       -0.2041
     10 C         143.2637  142.3520  168.6630 C.ar    1  UNL1        0.0298
     11 C         142.2919  141.4808  167.9236 C.ar    1  UNL1        0.0066
     12 C         141.0535  140.9875  168.6112 C.ar    1  UNL1        0.0493
     13 H         136.7001  138.9357  170.1886 H       1  UNL1        0.1452
     14 H         137.1628  139.7555  171.6104 H       1  UNL1        0.1452
     15 N         140.3484  139.7384  166.4449 N.pl3   1  UNL1       -0.3195
     16 H         140.9319  138.9726  166.2394 H       1  UNL1        0.1481
     17 C         139.7260  140.5273  165.3313 C.3     1  UNL1        0.0729
     18 C         140.5417  141.5387  164.5818 C.3     1  UNL1        0.0196
     19 C         139.8418  143.5242  166.1044 C.3     1  UNL1        0.0001
     20 C         140.2740  143.0032  164.7658 C.3     1  UNL1        0.0017
     21 C         138.2880  140.3048  164.9670 C.3     1  UNL1        0.0512
     22 C         137.8447  140.4478  163.5412 C.3     1  UNL1        0.1389
     23 O         136.6717  141.3200  163.2045 O.3     1  UNL1       -0.3819
     24 H         135.8657  140.9401  163.5877 H       1  UNL1        0.2104
@<TRIPOS>BOND
     1    19    20    1
     2    20    18    1
     3    17    18    1
     4    17    21    1
     5    21    22    1
     6    22    23    1
     7    17    15    1
     8    15     1    1
     9     1     2   ar
    10     2     3   ar
    11     3     4    1
    12     3     5   ar
    13     5     6   ar
    14     6     7   ar
    15     7     8   ar
    16     8     9    1
    17     8    10   ar
    18    10    11   ar
    19    11    12   ar
    20    12     1   ar
    21    12     6   ar
    22    23    24    1
    23    15    16    1
    24     4    13    1
    25     4    14    1
@<TRIPOS>MOLECULE
*****
 24 25 0 0 0
SMALL
GASTEIGER

@<TRIPOS>ATOM
      1 C         138.9858  139.8528  165.2073 C.ar    1  UNL1        0.1327
      2 N         138.0540  138.7621  165.6454 N.ar    1  UNL1       -0.1993
      3 C         137.8397  138.5007  167.1068 C.ar    1  UNL1        0.2148
      4 N         136.9078  137.4099  167.5449 N.pl3   1  UNL1       -0.3274
      5 N         138.5573  139.3300  168.1301 N.ar    1  UNL1       -0.2138
      6 C         139.4892  140.4208  167.6921 C.ar    1  UNL1        0.0891
      7 C         140.2068  141.2501  168.7154 C.ar    1  UNL1        0.0489
      8 C         141.1386  142.3408  168.2773 C.ar    1  UNL1        0.1416
      9 F         141.8563  143.1702  169.3006 F       1  UNL1       -0.2041
     10 C         141.3528  142.6022  166.8159 C.ar    1  UNL1        0.0298
     11 C         140.6353  141.7729  165.7925 C.ar    1  UNL1        0.0066
     12 C         139.7034  140.6822  166.2306 C.ar    1  UNL1        0.0493
     13 H         136.4369  136.8656  166.8732 H       1  UNL1        0.1452
     14 H         136.7672  137.2383  168.5040 H       1  UNL1        0.1452
     15 N         139.2000  140.1142  163.7458 N.pl3   1  UNL1       -0.3195
     16 H         140.0786  139.9383  163.3379 H       1  UNL1        0.1481
     17 C         138.0756  140.6437  162.9059 C.3     1  UNL1        0.0729
     18 C         137.2706  141.8159  163.3831 C.3     1  UNL1        0.0196
     19 C         137.9102  144.0210  164.5991 C.3     1  UNL1        0.0001
     20 C         137.8603  143.1948  163.3482 C.3     1  UNL1        0.0017
     21 C         137.7563  140.0008  161.5888 C.3     1  UNL1        0.0512
     22 C         138.3351  138.6594  161.2490 C.3     1  UNL1        0.1389
     23 O         138.2664  137.5391  162.2440 O.3     1  UNL1       -0.3819
     24 H         138.8096  137.7593  163.0168 H       1  UNL1        0.2104
@<TRIPOS>BOND
     1    19    20    1
     2    20    18    1
     3    17    18    1
     4    17    21    1
     5    21    22    1
     6    22    23    1
     7    17    15    1
     8    15     1    1
     9     1     2   ar
    10     2     3   ar
    11     3     4    1
    12     3     5   ar
    13     5     6   ar
    14     6     7   ar
    15     7     8   ar
    16     8     9    1
    17     8    10   ar
    18    10    11   ar
    19    11    12   ar
    20    12     1   ar
    21    12     6   ar
    22    23    24    1
    23    15    16    1
    24     4    13    1
    25     4    14    1
@<TRIPOS>MOLECULE
*****
 24 25 0 0 0
SMALL
GASTEIGER

@<TRIPOS>ATOM
      1 C         142.8853  139.2175  164.5043 C.ar    1  UNL1        0.1327
      2 N         143.2796  138.5374  163.2269 N.ar    1  UNL1       -0.1993
      3 C         144.1962  139.2283  162.2612 C.ar    1  UNL1        0.2148
      4 N         144.5904  138.5481  160.9837 N.pl3   1  UNL1       -0.3274
      5 N         144.7185  140.5994  162.5731 N.ar    1  UNL1       -0.2138
      6 C         144.3243  141.2796  163.8506 C.ar    1  UNL1        0.0891
      7 C         144.8467  142.6507  164.1624 C.ar    1  UNL1        0.0489
      8 C         144.4524  143.3308  165.4399 C.ar    1  UNL1        0.1416
      9 F         144.9748  144.7019  165.7518 F       1  UNL1       -0.2041
     10 C         143.5358  142.6398  166.4055 C.ar    1  UNL1        0.0298
     11 C         143.0134  141.2688  166.0937 C.ar    1  UNL1        0.0066
     12 C         143.4077  140.5887  164.8162 C.ar    1  UNL1        0.0493
     13 H         144.2475  137.6482  160.7791 H       1  UNL1        0.1452
     14 H         145.1920  139.0016  160.3499 H       1  UNL1        0.1452
     15 N         141.9687  138.5266  165.4700 N.pl3   1  UNL1       -0.3195
     16 H         142.3416  138.0392  166.2398 H       1  UNL1        0.1481
     17 C         140.4840  138.5783  165.2627 C.3     1  UNL1        0.0729
     18 C         139.6774  139.6782  165.8869 C.3     1  UNL1        0.0196
     19 C         137.6499  138.6157  167.1159 C.3     1  UNL1        0.0001
     20 C         138.9138  139.4228  167.1525 C.3     1  UNL1        0.0017
     21 C         139.8058  137.5300  164.4312 C.3     1  UNL1        0.0512
     22 C         139.9267  137.5642  162.9365 C.3     1  UNL1        0.1389
     23 O         141.1440  136.9959  162.2693 O.3     1  UNL1       -0.3819
     24 H         141.9205  137.5265  162.5072 H       1  UNL1        0.2104
@<TRIPOS>BOND
     1    19    20    1
     2    20    18    1
     3    17    18    1
     4    17    21    1
     5    21    22    1
     6    22    23    1
     7    17    15    1
     8    15     1    1
     9     1     2   ar
    10     2     3   ar
    11     3     4    1
    12     3     5   ar
    13     5     6   ar
    14     6     7   ar
    15     7     8   ar
    16     8     9    1
    17     8    10   ar
    18    10    11   ar
    19    11    12   ar
    20    12     1   ar
    21    12     6   ar
    22    23    24    1
    23    15    16    1
    24     4    13    1
    25     4    14    1
@<TRIPOS>MOLECULE
*****
 24 25 0 0 0
SMALL
GASTEIGER

@<TRIPOS>ATOM
      1 C         141.3516  142.2566  165.3932 C.ar    1  UNL1        0.1327
      2 N         142.4170  142.6908  166.3556 N.ar    1  UNL1       -0.1993
      3 C         142.4385  142.1384  167.7500 C.ar    1  UNL1        0.2148
      4 N         143.5039  142.5727  168.7125 N.pl3   1  UNL1       -0.3274
      5 N         141.3946  141.1517  168.1820 N.ar    1  UNL1       -0.2138
      6 C         140.3291  140.7174  167.2196 C.ar    1  UNL1        0.0891
      7 C         139.2852  139.7307  167.6515 C.ar    1  UNL1        0.0489
      8 C         138.2198  139.2964  166.6891 C.ar    1  UNL1        0.1416
      9 F         137.1758  138.3097  167.1211 F       1  UNL1       -0.2041
     10 C         138.1983  139.8489  165.2947 C.ar    1  UNL1        0.0298
     11 C         139.2422  140.8356  164.8627 C.ar    1  UNL1        0.0066
     12 C         140.3076  141.2698  165.8252 C.ar    1  UNL1        0.0493
     13 H         144.1891  143.2203  168.4289 H       1  UNL1        0.1452
     14 H         143.5180  142.2102  169.6277 H       1  UNL1        0.1452
     15 N         141.3301  142.8090  163.9988 N.pl3   1  UNL1       -0.3195
     16 H         141.5474  142.2267  163.2353 H       1  UNL1        0.1481
     17 C         140.9775  144.2485  163.7677 C.3     1  UNL1        0.0729
     18 C         139.5584  144.6353  163.4738 C.3     1  UNL1        0.0196
     19 C         138.5334  145.0095  165.8317 C.3     1  UNL1        0.0001
     20 C         138.4817  144.3589  164.4811 C.3     1  UNL1        0.0017
     21 C         142.0442  145.3014  163.8306 C.3     1  UNL1        0.0512
     22 C         143.4698  144.9435  163.5316 C.3     1  UNL1        0.1389
     23 O         144.2365  144.0657  164.4758 O.3     1  UNL1       -0.3819
     24 H         144.3588  144.5279  165.3198 H       1  UNL1        0.2104
@<TRIPOS>BOND
     1    19    20    1
     2    20    18    1
     3    17    18    1
     4    17    21    1
     5    21    22    1
     6    22    23    1
     7    17    15    1
     8    15     1    1
     9     1     2   ar
    10     2     3   ar
    11     3     4    1
    12     3     5   ar
    13     5     6   ar
    14     6     7   ar
    15     7     8   ar
    16     8     9    1
    17     8    10   ar
    18    10    11   ar
    19    11    12   ar
    20    12     1   ar
    21    12     6   ar
    22    23    24    1
    23    15    16    1
    24     4    13    1
    25     4    14    1
@<TRIPOS>MOLECULE
*****
 24 25 0 0 0
SMALL
GASTEIGER

@<TRIPOS>ATOM
      1 C         141.4910  144.2678  164.0364 C.ar    1  UNL1        0.1327
      2 N         142.6398  144.4020  163.0813 N.ar    1  UNL1       -0.1993
      3 C         143.7392  143.3816  163.0825 C.ar    1  UNL1        0.2148
      4 N         144.8881  143.5158  162.1274 N.pl3   1  UNL1       -0.3274
      5 N         143.6899  142.2270  164.0387 N.ar    1  UNL1       -0.2138
      6 C         142.5410  142.0927  164.9939 C.ar    1  UNL1        0.0891
      7 C         142.4916  140.9381  165.9501 C.ar    1  UNL1        0.0489
      8 C         141.3428  140.8039  166.9051 C.ar    1  UNL1        0.1416
      9 F         141.2934  139.6493  167.8614 F       1  UNL1       -0.2041
     10 C         140.2434  141.8243  166.9039 C.ar    1  UNL1        0.0298
     11 C         140.2927  142.9789  165.9477 C.ar    1  UNL1        0.0066
     12 C         141.4416  143.1131  164.9927 C.ar    1  UNL1        0.0493
     13 H         144.9205  144.2737  161.4998 H       1  UNL1        0.1452
     14 H         145.6097  142.8461  162.1282 H       1  UNL1        0.1452
     15 N         140.3915  145.2882  164.0352 N.pl3   1  UNL1       -0.3195
     16 H         140.3249  145.9409  164.7692 H       1  UNL1        0.1481
     17 C         139.3935  145.3140  162.9157 C.3     1  UNL1        0.0729
     18 C         138.1224  144.5253  163.0257 C.3     1  UNL1        0.0196
     19 C         137.5105  142.0472  163.5102 C.3     1  UNL1        0.0001
     20 C         138.0928  143.0873  162.5997 C.3     1  UNL1        0.0017
     21 C         139.6666  146.1288  161.6861 C.3     1  UNL1        0.0512
     22 C         140.3155  145.4918  160.4932 C.3     1  UNL1        0.1389
     23 O         141.8100  145.3873  160.4189 O.3     1  UNL1       -0.3819
     24 H         142.1936  146.2761  160.3571 H       1  UNL1        0.2104
@<TRIPOS>BOND
     1    19    20    1
     2    20    18    1
     3    17    18    1
     4    17    21    1
     5    21    22    1
     6    22    23    1
     7    17    15    1
     8    15     1    1
     9     1     2   ar
    10     2     3   ar
    11     3     4    1
    12     3     5   ar
    13     5     6   ar
    14     6     7   ar
    15     7     8   ar
    16     8     9    1
    17     8    10   ar
    18    10    11   ar
    19    11    12   ar
    20    12     1   ar
    21    12     6   ar
    22    23    24    1
    23    15    16    1
    24     4    13    1
    25     4    14    1
@<TRIPOS>MOLECULE
*****
 24 25 0 0 0
SMALL
GASTEIGER

@<TRIPOS>ATOM
      1 C         139.4062  143.0408  164.6325 C.ar    1  UNL1        0.1327
      2 N         138.5761  142.5106  163.5013 N.ar    1  UNL1       -0.1993
      3 C         138.0209  141.1187  163.5666 C.ar    1  UNL1        0.2148
      4 N         137.1908  140.5885  162.4352 N.pl3   1  UNL1       -0.3274
      5 N         138.2958  140.2569  164.7631 N.ar    1  UNL1       -0.2138
      6 C         139.1260  140.7871  165.8944 C.ar    1  UNL1        0.0891
      7 C         139.4009  139.9253  167.0910 C.ar    1  UNL1        0.0489
      8 C         140.2310  140.4555  168.2222 C.ar    1  UNL1        0.1416
      9 F         140.5060  139.5937  169.4189 F       1  UNL1       -0.2041
     10 C         140.7862  141.8474  168.1569 C.ar    1  UNL1        0.0298
     11 C         140.5113  142.7092  166.9604 C.ar    1  UNL1        0.0066
     12 C         139.6812  142.1790  165.8292 C.ar    1  UNL1        0.0493
     13 H         137.0103  141.1541  161.6499 H       1  UNL1        0.1452
     14 H         136.8264  139.6749  162.4781 H       1  UNL1        0.1452
     15 N         139.9614  144.4327  164.5673 N.pl3   1  UNL1       -0.3195
     16 H         139.5496  145.1523  165.0981 H       1  UNL1        0.1481
     17 C         141.1440  144.7283  163.6931 C.3     1  UNL1        0.0729
     18 C         142.5284  144.3993  164.1678 C.3     1  UNL1        0.0196
     19 C         144.4074  143.9014  162.4440 C.3     1  UNL1        0.0001
     20 C         143.7198  144.8532  163.3775 C.3     1  UNL1        0.0017
     21 C         140.9422  145.3528  162.3443 C.3     1  UNL1        0.0512
     22 C         139.6324  146.0009  162.0062 C.3     1  UNL1        0.1389
     23 O         138.3541  145.2301  162.1538 O.3     1  UNL1       -0.3819
     24 H         138.3424  144.4985  161.5170 H       1  UNL1        0.2104
@<TRIPOS>BOND
     1    19    20    1
     2    20    18    1
     3    17    18    1
     4    17    21    1
     5    21    22    1
     6    22    23    1
     7    17    15    1
     8    15     1    1
     9     1     2   ar
    10     2     3   ar
    11     3     4    1
    12     3     5   ar
    13     5     6   ar
    14     6     7   ar
    15     7     8   ar
    16     8     9    1
    17     8    10   ar
    18    10    11   ar
    19    11    12   ar
    20    12     1   ar
    21    12     6   ar
    22    23    24    1
    23    15    16    1
    24     4    13    1
    25     4    14    1
@<TRIPOS>MOLECULE
*****
 24 25 0 0 0
SMALL
GASTEIGER

@<TRIPOS>ATOM
      1 C         142.3718  139.6648  164.9505 C.ar    1  UNL1        0.1327
      2 N         142.8178  138.9888  163.6879 N.ar    1  UNL1       -0.1993
      3 C         141.9151  138.0046  163.0049 C.ar    1  UNL1        0.2148
      4 N         142.3612  137.3286  161.7423 N.pl3   1  UNL1       -0.3274
      5 N         140.5664  137.6964  163.5845 N.ar    1  UNL1       -0.2138
      6 C         140.1204  138.3724  164.8471 C.ar    1  UNL1        0.0891
      7 C         138.7716  138.0641  165.4267 C.ar    1  UNL1        0.0489
      8 C         138.3257  138.7401  166.6893 C.ar    1  UNL1        0.1416
      9 F         136.9769  138.4319  167.2689 F       1  UNL1       -0.2041
     10 C         139.2284  139.7243  167.3723 C.ar    1  UNL1        0.0298
     11 C         140.5771  140.0325  166.7927 C.ar    1  UNL1        0.0066
     12 C         141.0231  139.3565  165.5301 C.ar    1  UNL1        0.0493
     13 H         143.2464  137.5310  161.3619 H       1  UNL1        0.1452
     14 H         141.7687  136.6827  161.2940 H       1  UNL1        0.1452
     15 N         143.2745  140.6489  165.6335 N.pl3   1  UNL1       -0.3195
     16 H         143.7765  140.3812  166.4370 H       1  UNL1        0.1481
     17 C         143.4125  142.0411  165.0923 C.3     1  UNL1        0.0729
     18 C         142.2188  142.9479  165.0420 C.3     1  UNL1        0.0196
     19 C         142.1346  145.2347  163.8116 C.3     1  UNL1        0.0001
     20 C         141.9362  143.7479  163.8049 C.3     1  UNL1        0.0017
     21 C         144.7443  142.5264  164.6014 C.3     1  UNL1        0.0512
     22 C         145.4610  141.7796  163.5157 C.3     1  UNL1        0.1389
     23 O         145.4881  140.2800  163.5289 O.3     1  UNL1       -0.3819
     24 H         145.9930  139.9725  164.2979 H       1  UNL1        0.2104
@<TRIPOS>BOND
     1    19    20    1
     2    20    18    1
     3    17    18    1
     4    17    21    1
     5    21    22    1
     6    22    23    1
     7    17    15    1
     8    15     1    1
     9     1     2   ar
    10     2     3   ar
    11     3     4    1
    12     3     5   ar
    13     5     6   ar
    14     6     7   ar
    15     7     8   ar
    16     8     9    1
    17     8    10   ar
    18    10    11   ar
    19    11    12   ar
    20    12     1   ar
    21    12     6   ar
    22    23    24    1
    23    15    16    1
    24     4    13    1
    25     4    14    1
@<TRIPOS>MOLECULE
*****
 24 25 0 0 0
SMALL
GASTEIGER

@<TRIPOS>ATOM
      1 C         140.2533  140.7033  162.7792 C.ar    1  UNL1        0.1327
      2 N         139.3058  139.9198  161.9200 N.ar    1  UNL1       -0.1993
      3 C         137.8613  140.3166  161.8419 C.ar    1  UNL1        0.2148
      4 N         136.9138  139.5330  160.9826 N.pl3   1  UNL1       -0.3274
      5 N         137.3644  141.4967  162.6230 N.ar    1  UNL1       -0.2138
      6 C         138.3120  142.2802  163.4823 C.ar    1  UNL1        0.0891
      7 C         137.8150  143.4604  164.2634 C.ar    1  UNL1        0.0489
      8 C         138.7626  144.2439  165.1227 C.ar    1  UNL1        0.1416
      9 F         138.2657  145.4241  165.9038 F       1  UNL1       -0.2041
     10 C         140.2071  143.8471  165.2007 C.ar    1  UNL1        0.0298
     11 C         140.7040  142.6670  164.4196 C.ar    1  UNL1        0.0066
     12 C         139.7564  141.8835  163.5604 C.ar    1  UNL1        0.0493
     13 H         137.2399  138.7584  160.4699 H       1  UNL1        0.1452
     14 H         135.9657  139.7934  160.9313 H       1  UNL1        0.1452
     15 N         141.6978  140.3065  162.8573 N.pl3   1  UNL1       -0.3195
     16 H         142.3235  140.5843  162.1498 H       1  UNL1        0.1481
     17 C         142.1890  139.4867  164.0134 C.3     1  UNL1        0.0729
     18 C         143.5250  139.7818  164.6282 C.3     1  UNL1        0.0196
     19 C         145.5371  141.2526  163.8945 C.3     1  UNL1        0.0001
     20 C         144.1495  141.1342  164.4517 C.3     1  UNL1        0.0017
     21 C         141.3441  138.3717  164.5547 C.3     1  UNL1        0.0512
     22 C         141.0961  137.1474  163.7243 C.3     1  UNL1        0.1389
     23 O         140.9008  137.2733  162.2424 O.3     1  UNL1       -0.3819
     24 H         140.0803  137.7591  162.0646 H       1  UNL1        0.2104
@<TRIPOS>BOND
     1    19    20    1
     2    20    18    1
     3    17    18    1
     4    17    21    1
     5    21    22    1
     6    22    23    1
     7    17    15    1
     8    15     1    1
     9     1     2   ar
    10     2     3   ar
    11     3     4    1
    12     3     5   ar
    13     5     6   ar
    14     6     7   ar
    15     7     8   ar
    16     8     9    1
    17     8    10   ar
    18    10    11   ar
    19    11    12   ar
    20    12     1   ar
    21    12     6   ar
    22    23    24    1
    23    15    16    1
    24     4    13    1
    25     4    14    1
@<TRIPOS>MOLECULE
*****
 24 25 0 0 0
SMALL
GASTEIGER

@<TRIPOS>ATOM
      1 C         140.7054  142.0655  165.8160 C.ar    1  UNL1        0.1327
      2 N         140.2580  143.0009  166.8999 N.ar    1  UNL1       -0.1993
      3 C         140.6746  142.7572  168.3201 C.ar    1  UNL1        0.2148
      4 N         140.2271  143.6926  169.4040 N.pl3   1  UNL1       -0.3274
      5 N         141.5387  141.5782  168.6564 N.ar    1  UNL1       -0.2138
      6 C         141.9862  140.6427  167.5725 C.ar    1  UNL1        0.0891
      7 C         142.8503  139.4637  167.9089 C.ar    1  UNL1        0.0489
      8 C         143.2978  138.5283  166.8250 C.ar    1  UNL1        0.1416
      9 F         144.1619  137.3492  167.1613 F       1  UNL1       -0.2041
     10 C         142.8811  138.7720  165.4048 C.ar    1  UNL1        0.0298
     11 C         142.0170  139.9511  165.0684 C.ar    1  UNL1        0.0066
     12 C         141.5696  140.8864  166.1523 C.ar    1  UNL1        0.0493
     13 H         139.6600  144.4665  169.1832 H       1  UNL1        0.1452
     14 H         140.5006  143.5327  170.3362 H       1  UNL1        0.1452
     15 N         140.2888  142.3092  164.3958 N.pl3   1  UNL1       -0.3195
     16 H         140.9364  142.6697  163.7477 H       1  UNL1        0.1481
     17 C         138.8855  142.0037  163.9629 C.3     1  UNL1        0.0729
     18 C         138.5655  140.6789  163.3365 C.3     1  UNL1        0.0196
     19 C         138.1313  139.5352  165.6285 C.3     1  UNL1        0.0001
     20 C         138.5185  139.4410  164.1824 C.3     1  UNL1        0.0017
     21 C         137.8022  143.0231  164.1565 C.3     1  UNL1        0.0512
     22 C         138.1089  144.4828  163.9981 C.3     1  UNL1        0.1389
     23 O         139.1744  145.1208  164.8393 O.3     1  UNL1       -0.3819
     24 H         138.9000  145.1125  165.7696 H       1  UNL1        0.2104
@<TRIPOS>BOND
     1    19    20    1
     2    20    18    1
     3    17    18    1
     4    17    21    1
     5    21    22    1
     6    22    23    1
     7    17    15    1
     8    15     1    1
     9     1     2   ar
    10     2     3   ar
    11     3     4    1
    12     3     5   ar
    13     5     6   ar
    14     6     7   ar
    15     7     8   ar
    16     8     9    1
    17     8    10   ar
    18    10    11   ar
    19    11    12   ar
    20    12     1   ar
    21    12     6   ar
    22    23    24    1
    23    15    16    1
    24     4    13    1
    25     4    14    1
