@<TRIPOS>MOLECULE
*****
 48 55 0 0 0
SMALL
GASTEIGER

@<TRIPOS>ATOM
      1 C         140.5272  144.7244  157.8887 C.ar    1  UNL1        0.1384
      2 C         141.3556  144.2783  156.7204 C.ar    1  UNL1        0.0369
      3 C         141.7896  142.8466  156.6118 C.ar    1  UNL1        0.0042
      4 C         141.3952  141.8609  157.6714 C.ar    1  UNL1        0.0117
      5 C         140.5668  142.3068  158.8397 C.ar    1  UNL1       -0.0176
      6 C         140.1328  143.7386  158.9484 C.ar    1  UNL1        0.0327
      7 C         140.0682  141.4938  159.9974 C.3     1  UNL1        0.0330
      8 C         139.4765  140.8714  161.2272 C.3     1  UNL1        0.0157
      9 C         140.2748  140.0338  160.2727 C.3     1  UNL1        0.0938
     10 C         141.0311  139.0264  159.4583 C.3     1  UNL1        0.1148
     11 N         141.7675  139.2301  158.1675 N.ar    1  UNL1       -0.3269
     12 C         141.9295  140.4916  157.3723 C.ar    1  UNL1        0.0555
     13 C         142.7525  140.1725  156.1595 C.ar    1  UNL1       -0.0053
     14 C         143.0991  138.7138  156.2052 C.ar    1  UNL1        0.0132
     15 C         143.8905  137.8406  155.2771 C.ar    1  UNL1        0.0013
     16 C         144.0730  136.3850  155.5900 C.ar    1  UNL1        0.0046
     17 C         143.4642  135.8026  156.8311 C.ar    1  UNL1        0.0563
     18 C         142.6729  136.6757  157.7592 C.ar    1  UNL1        0.0217
     19 C         142.4903  138.1314  157.4463 C.ar    1  UNL1        0.0597
     20 C         139.9934  138.8975  161.2106 C.2     1  UNL1        0.2268
     21 O         138.7946  138.0230  160.9911 O.2     1  UNL1       -0.2748
     22 N         140.9109  138.6357  162.3681 N.am    1  UNL1       -0.2800
     23 C         142.1416  139.4210  162.7128 C.3     1  UNL1        0.0913
     24 C         142.7500  138.8131  163.9419 C.3     1  UNL1        0.0230
     25 C         141.8954  137.6522  164.3566 C.3     1  UNL1        0.0230
     26 C         140.7588  137.5426  163.3839 C.3     1  UNL1        0.0913
     27 C         139.7439  137.6720  162.2738 C.3     1  UNL1        0.0922
     28 N         140.0252  138.8083  161.3359 N.3     1  UNL1       -0.2687
     29 C         139.1078  139.0702  160.1784 C.3     1  UNL1        0.0897
     30 C         141.2241  139.6828  161.5554 C.3     1  UNL1        0.0922
     31 C         143.1578  141.1418  155.0890 C.3     1  UNL1        0.0238
     32 C         144.4407  141.9084  155.2178 C.3     1  UNL1        0.0044
     33 C         144.8461  142.8777  154.1474 C.3     1  UNL1        0.0003
     34 C         143.9685  143.0805  152.9479 C.3     1  UNL1        0.0000
     35 C         142.6856  142.3141  152.8190 C.3     1  UNL1        0.0003
     36 C         142.2802  141.3447  153.8895 C.3     1  UNL1        0.0044
     37 C         143.6467  134.3470  157.1440 C.2     1  UNL1        0.2651
     38 O         143.8660  133.9062  158.5609 O.2     1  UNL1       -0.2685
     39 N         143.6099  133.3321  156.0400 N.am    1  UNL1       -0.1714
     40 H         143.4660  133.6214  155.1101 H       1  UNL1        0.1779
     41 S         143.7924  131.8765  156.3529 S.O2    1  UNL1        0.1154
     42 O         145.2696  132.0142  156.1321 O.2     1  UNL1       -0.1378
     43 O         142.3150  131.7389  156.5737 O.2     1  UNL1       -0.1378
     44 N         143.9748  130.4209  156.6658 N.3     1  UNL1       -0.1398
     45 C         144.5091  130.0025  158.0035 C.3     1  UNL1        0.1163
     46 C         143.6229  129.3838  155.6409 C.3     1  UNL1        0.1163
     47 C         139.5879  146.8806  156.7850 C.3     1  UNL1        0.2525
     48 O         140.0932  146.1560  157.9973 O.3     1  UNL1       -0.4714
@<TRIPOS>BOND
     1    47    48    1
     2    48     1    1
     3     1     2   ar
     4     2     3   ar
     5     3     4   ar
     6     4     5   ar
     7     5     6   ar
     8     5     7    1
     9     7     8    1
    10     8     9    1
    11     9    20    1
    12    20    21    2
    13    20    22   am
    14    22    23    1
    15    23    24    1
    16    24    25    1
    17    25    26    1
    18    26    27    1
    19    27    28    1
    20    28    29    1
    21    28    30    1
    22     9    10    1
    23    10    11    1
    24    11    12   ar
    25    12    13   ar
    26    13    31    1
    27    31    32    1
    28    32    33    1
    29    33    34    1
    30    34    35    1
    31    35    36    1
    32    13    14   ar
    33    14    15   ar
    34    15    16   ar
    35    16    17   ar
    36    17    37    1
    37    37    38    2
    38    37    39   am
    39    39    41    1
    40    41    42    2
    41    41    43    2
    42    41    44    1
    43    44    45    1
    44    44    46    1
    45    17    18   ar
    46    18    19   ar
    47     6     1   ar
    48     9     7    1
    49    26    22    1
    50    19    11   ar
    51    12     4    1
    52    36    31    1
    53    19    14   ar
    54    30    23    1
    55    39    40    1
@<TRIPOS>MOLECULE
*****
 48 55 0 0 0
SMALL
GASTEIGER

@<TRIPOS>ATOM
      1 C         139.3198  139.8525  162.2359 C.ar    1  UNL1        0.1384
      2 C         140.3878  140.8492  162.5764 C.ar    1  UNL1        0.0369
      3 C         141.4899  141.1310  161.5986 C.ar    1  UNL1        0.0042
      4 C         141.5239  140.4161  160.2804 C.ar    1  UNL1        0.0117
      5 C         140.4560  139.4194  159.9399 C.ar    1  UNL1       -0.0176
      6 C         139.3538  139.1375  160.9177 C.ar    1  UNL1        0.0327
      7 C         140.3029  138.6024  158.6912 C.3     1  UNL1        0.0330
      8 C         139.9661  137.7017  157.5400 C.3     1  UNL1        0.0157
      9 C         141.1800  138.5804  157.4746 C.3     1  UNL1        0.0938
     10 C         142.4269  139.3699  157.2063 C.3     1  UNL1        0.1148
     11 N         143.1046  140.3764  158.0881 N.ar    1  UNL1       -0.3269
     12 C         142.7027  140.8420  159.4563 C.ar    1  UNL1        0.0555
     13 C         143.7076  141.8571  159.9142 C.ar    1  UNL1       -0.0053
     14 C         144.7305  142.0189  158.8291 C.ar    1  UNL1        0.0132
     15 C         145.9533  142.8813  158.7228 C.ar    1  UNL1        0.0013
     16 C         146.8032  142.8286  157.4880 C.ar    1  UNL1        0.0046
     17 C         146.4305  141.9134  156.3594 C.ar    1  UNL1        0.0563
     18 C         145.2078  141.0511  156.4657 C.ar    1  UNL1        0.0217
     19 C         144.3577  141.1037  157.7005 C.ar    1  UNL1        0.0597
     20 C         141.4004  137.9835  156.1162 C.2     1  UNL1        0.2268
     21 O         140.7827  138.6215  154.9074 O.2     1  UNL1       -0.2748
     22 N         142.2386  136.7485  155.9668 N.am    1  UNL1       -0.2800
     23 C         142.9168  136.0034  157.0780 C.3     1  UNL1        0.0913
     24 C         143.6430  134.8362  156.4777 C.3     1  UNL1        0.0230
     25 C         143.4136  134.8600  154.9955 C.3     1  UNL1        0.0230
     26 C         142.5456  136.0418  154.6798 C.3     1  UNL1        0.0913
     27 C         141.6813  137.2795  154.6602 C.3     1  UNL1        0.0922
     28 N         141.4609  137.8764  156.0186 N.3     1  UNL1       -0.2687
     29 C         140.6228  139.1114  156.1682 C.3     1  UNL1        0.0897
     30 C         142.0786  137.2384  157.2275 C.3     1  UNL1        0.0922
     31 C         143.6923  142.5830  161.2267 C.3     1  UNL1        0.0238
     32 C         142.8486  143.8119  161.3944 C.3     1  UNL1        0.0044
     33 C         142.8333  144.5378  162.7068 C.3     1  UNL1        0.0003
     34 C         143.6617  144.0349  163.8518 C.3     1  UNL1        0.0000
     35 C         144.5054  142.8061  163.6841 C.3     1  UNL1        0.0003
     36 C         144.5207  142.0801  162.3716 C.3     1  UNL1        0.0044
     37 C         147.2804  141.8607  155.1246 C.2     1  UNL1        0.2651
     38 O         146.7056  141.3414  153.8401 O.2     1  UNL1       -0.2685
     39 N         148.7052  142.3272  155.1743 N.am    1  UNL1       -0.1714
     40 H         149.0824  142.6680  156.0174 H       1  UNL1        0.1779
     41 S         149.5552  142.2745  153.9395 S.O2    1  UNL1        0.1154
     42 O         150.2275  141.0368  154.4551 O.2     1  UNL1       -0.1378
     43 O         148.8828  143.5124  153.4239 O.2     1  UNL1       -0.1378
     44 N         150.4052  142.2219  152.7048 N.3     1  UNL1       -0.1398
     45 C         151.0815  143.4645  152.2063 C.3     1  UNL1        0.1163
     46 C         150.5788  140.9267  151.9685 C.3     1  UNL1        0.1163
     47 C         138.4800  139.6665  164.6875 C.3     1  UNL1        0.2525
     48 O         138.2178  139.5707  163.2137 O.3     1  UNL1       -0.4714
@<TRIPOS>BOND
     1    47    48    1
     2    48     1    1
     3     1     2   ar
     4     2     3   ar
     5     3     4   ar
     6     4     5   ar
     7     5     6   ar
     8     5     7    1
     9     7     8    1
    10     8     9    1
    11     9    20    1
    12    20    21    2
    13    20    22   am
    14    22    23    1
    15    23    24    1
    16    24    25    1
    17    25    26    1
    18    26    27    1
    19    27    28    1
    20    28    29    1
    21    28    30    1
    22     9    10    1
    23    10    11    1
    24    11    12   ar
    25    12    13   ar
    26    13    31    1
    27    31    32    1
    28    32    33    1
    29    33    34    1
    30    34    35    1
    31    35    36    1
    32    13    14   ar
    33    14    15   ar
    34    15    16   ar
    35    16    17   ar
    36    17    37    1
    37    37    38    2
    38    37    39   am
    39    39    41    1
    40    41    42    2
    41    41    43    2
    42    41    44    1
    43    44    45    1
    44    44    46    1
    45    17    18   ar
    46    18    19   ar
    47     6     1   ar
    48     9     7    1
    49    26    22    1
    50    19    11   ar
    51    12     4    1
    52    36    31    1
    53    19    14   ar
    54    30    23    1
    55    39    40    1
@<TRIPOS>MOLECULE
*****
 48 55 0 0 0
SMALL
GASTEIGER

@<TRIPOS>ATOM
      1 C         140.5624  144.4948  157.5723 C.ar    1  UNL1        0.1384
      2 C         140.5195  143.7909  156.2483 C.ar    1  UNL1        0.0369
      3 C         140.9242  142.3498  156.1516 C.ar    1  UNL1        0.0042
      4 C         141.3718  141.6125  157.3788 C.ar    1  UNL1        0.0117
      5 C         141.4148  142.3163  158.7027 C.ar    1  UNL1       -0.0176
      6 C         141.0100  143.7575  158.7995 C.ar    1  UNL1        0.0327
      7 C         141.8263  141.7718  160.0385 C.3     1  UNL1        0.0330
      8 C         142.1924  141.4323  161.4529 C.3     1  UNL1        0.0157
      9 C         142.2965  140.3890  160.3802 C.3     1  UNL1        0.0938
     10 C         142.4714  139.2092  159.4705 C.3     1  UNL1        0.1148
     11 N         142.2192  139.1208  157.9945 N.ar    1  UNL1       -0.3269
     12 C         141.7299  140.1904  157.0636 C.ar    1  UNL1        0.0555
     13 C         141.6430  139.6022  155.6865 C.ar    1  UNL1       -0.0053
     14 C         142.0787  138.1691  155.7663 C.ar    1  UNL1        0.0132
     15 C         142.1972  137.0964  154.7244 C.ar    1  UNL1        0.0013
     16 C         142.6717  135.7264  155.1089 C.ar    1  UNL1        0.0046
     17 C         143.0278  135.4290  156.5353 C.ar    1  UNL1        0.0563
     18 C         142.9093  136.5015  157.5772 C.ar    1  UNL1        0.0217
     19 C         142.4348  137.8716  157.1928 C.ar    1  UNL1        0.0597
     20 C         142.7703  139.4754  161.4715 C.2     1  UNL1        0.2268
     21 O         144.2348  139.3697  161.7781 O.2     1  UNL1       -0.2748
     22 N         141.7795  138.6674  162.2560 N.am    1  UNL1       -0.2800
     23 C         140.2918  138.6686  162.0642 C.3     1  UNL1        0.0913
     24 C         139.6954  137.7183  163.0599 C.3     1  UNL1        0.0230
     25 C         140.8146  137.1298  163.8670 C.3     1  UNL1        0.0230
     26 C         142.1025  137.7164  163.3701 C.3     1  UNL1        0.0913
     27 C         143.2209  138.4572  162.6776 C.3     1  UNL1        0.0922
     28 N         142.7471  139.3709  161.5863 N.3     1  UNL1       -0.2687
     29 C         143.7378  140.1789  160.8017 C.3     1  UNL1        0.0897
     30 C         141.2826  139.4766  161.2797 C.3     1  UNL1        0.0922
     31 C         141.1986  140.3208  154.4472 C.3     1  UNL1        0.0238
     32 C         142.2019  141.0464  153.6004 C.3     1  UNL1        0.0044
     33 C         141.7575  141.7650  152.3611 C.3     1  UNL1        0.0003
     34 C         140.3098  141.7581  151.9684 C.3     1  UNL1        0.0000
     35 C         139.3065  141.0325  152.8152 C.3     1  UNL1        0.0003
     36 C         139.7509  140.3139  154.0546 C.3     1  UNL1        0.0044
     37 C         143.5024  134.0590  156.9198 C.2     1  UNL1        0.2651
     38 O         144.0141  133.8043  158.3066 O.2     1  UNL1       -0.2685
     39 N         143.4652  132.9436  155.9176 N.am    1  UNL1       -0.1714
     40 H         143.1293  133.1107  155.0073 H       1  UNL1        0.1779
     41 S         143.9397  131.5736  156.3020 S.O2    1  UNL1        0.1154
     42 O         145.3585  131.9981  156.0641 O.2     1  UNL1       -0.1378
     43 O         142.5208  131.1490  156.5399 O.2     1  UNL1       -0.1378
     44 N         144.4141  130.2035  156.6864 N.3     1  UNL1       -0.1398
     45 C         144.6915  129.1806  155.6250 C.3     1  UNL1        0.1163
     46 C         144.6113  129.8564  158.1323 C.3     1  UNL1        0.1163
     47 C         139.6889  146.6669  156.4460 C.3     1  UNL1        0.2525
     48 O         140.1576  145.9358  157.6690 O.3     1  UNL1       -0.4714
@<TRIPOS>BOND
     1    47    48    1
     2    48     1    1
     3     1     2   ar
     4     2     3   ar
     5     3     4   ar
     6     4     5   ar
     7     5     6   ar
     8     5     7    1
     9     7     8    1
    10     8     9    1
    11     9    20    1
    12    20    21    2
    13    20    22   am
    14    22    23    1
    15    23    24    1
    16    24    25    1
    17    25    26    1
    18    26    27    1
    19    27    28    1
    20    28    29    1
    21    28    30    1
    22     9    10    1
    23    10    11    1
    24    11    12   ar
    25    12    13   ar
    26    13    31    1
    27    31    32    1
    28    32    33    1
    29    33    34    1
    30    34    35    1
    31    35    36    1
    32    13    14   ar
    33    14    15   ar
    34    15    16   ar
    35    16    17   ar
    36    17    37    1
    37    37    38    2
    38    37    39   am
    39    39    41    1
    40    41    42    2
    41    41    43    2
    42    41    44    1
    43    44    45    1
    44    44    46    1
    45    17    18   ar
    46    18    19   ar
    47     6     1   ar
    48     9     7    1
    49    26    22    1
    50    19    11   ar
    51    12     4    1
    52    36    31    1
    53    19    14   ar
    54    30    23    1
    55    39    40    1
@<TRIPOS>MOLECULE
*****
 48 55 0 0 0
SMALL
GASTEIGER

@<TRIPOS>ATOM
      1 C         141.7829  142.4284  155.0569 C.ar    1  UNL1        0.1384
      2 C         141.7086  140.9555  155.3307 C.ar    1  UNL1        0.0369
      3 C         141.4793  140.4631  156.7289 C.ar    1  UNL1        0.0042
      4 C         141.3243  141.4437  157.8533 C.ar    1  UNL1        0.0117
      5 C         141.3986  142.9166  157.5797 C.ar    1  UNL1       -0.0176
      6 C         141.6279  143.4090  156.1814 C.ar    1  UNL1        0.0327
      7 C         141.2715  144.0554  158.5477 C.3     1  UNL1        0.0330
      8 C         141.1751  145.3268  159.3377 C.3     1  UNL1        0.0157
      9 C         141.0387  144.0024  160.0286 C.3     1  UNL1        0.0938
     10 C         140.8755  142.7976  160.9071 C.3     1  UNL1        0.1148
     11 N         140.9048  141.3482  160.5219 N.ar    1  UNL1       -0.3269
     12 C         141.1045  140.7457  159.1628 C.ar    1  UNL1        0.0555
     13 C         141.0504  139.2534  159.3048 C.ar    1  UNL1       -0.0053
     14 C         140.8172  138.9338  160.7516 C.ar    1  UNL1        0.0132
     15 C         140.6751  137.6309  161.4815 C.ar    1  UNL1        0.0013
     16 C         140.4431  137.6228  162.9634 C.ar    1  UNL1        0.0046
     17 C         140.3531  138.9175  163.7155 C.ar    1  UNL1        0.0563
     18 C         140.4952  140.2203  162.9858 C.ar    1  UNL1        0.0217
     19 C         140.7272  140.2284  161.5038 C.ar    1  UNL1        0.0597
     20 C         140.8594  144.8029  161.2844 C.2     1  UNL1        0.2268
     21 O         139.5708  145.5293  161.5332 O.2     1  UNL1       -0.2748
     22 N         141.9686  144.8770  162.2914 N.am    1  UNL1       -0.2800
     23 C         143.3063  144.2074  162.1805 C.3     1  UNL1        0.0913
     24 C         144.0993  144.5503  163.4068 C.3     1  UNL1        0.0230
     25 C         143.2517  145.4319  164.2754 C.3     1  UNL1        0.0230
     26 C         141.9350  145.6338  163.5861 C.3     1  UNL1        0.0913
     27 C         140.7291  145.6602  162.6781 C.3     1  UNL1        0.0922
     28 N         140.9084  144.8597  161.4223 N.3     1  UNL1       -0.2687
     29 C         139.7992  144.7855  160.4152 C.3     1  UNL1        0.0897
     30 C         142.1970  144.1333  161.1735 C.3     1  UNL1        0.0922
     31 C         141.2027  138.2560  158.1950 C.3     1  UNL1        0.0238
     32 C         140.0230  137.8997  157.3396 C.3     1  UNL1        0.0044
     33 C         140.1752  136.9023  156.2298 C.3     1  UNL1        0.0003
     34 C         141.5072  136.2610  155.9752 C.3     1  UNL1        0.0000
     35 C         142.6868  136.6173  156.8304 C.3     1  UNL1        0.0003
     36 C         142.5346  137.6148  157.9403 C.3     1  UNL1        0.0044
     37 C         140.1211  138.9094  165.1974 C.2     1  UNL1        0.2651
     38 O         139.1828  137.9087  165.8042 O.2     1  UNL1       -0.2685
     39 N         140.8273  139.9021  166.0726 N.am    1  UNL1       -0.1714
     40 H         141.4432  140.5589  165.6743 H       1  UNL1        0.1779
     41 S         140.5954  139.8941  167.5545 S.O2    1  UNL1        0.1154
     42 O         139.2249  140.4660  167.3432 O.2     1  UNL1       -0.1378
     43 O         141.9659  139.3221  167.7659 O.2     1  UNL1       -0.1378
     44 N         140.3635  139.8860  169.0364 N.3     1  UNL1       -0.1398
     45 C         139.0180  140.2553  169.5871 C.3     1  UNL1        0.1163
     46 C         141.4772  139.5088  169.9677 C.3     1  UNL1        0.1163
     47 C         142.7597  144.2005  153.4274 C.3     1  UNL1        0.2525
     48 O         142.0122  142.9208  153.6588 O.3     1  UNL1       -0.4714
@<TRIPOS>BOND
     1    47    48    1
     2    48     1    1
     3     1     2   ar
     4     2     3   ar
     5     3     4   ar
     6     4     5   ar
     7     5     6   ar
     8     5     7    1
     9     7     8    1
    10     8     9    1
    11     9    20    1
    12    20    21    2
    13    20    22   am
    14    22    23    1
    15    23    24    1
    16    24    25    1
    17    25    26    1
    18    26    27    1
    19    27    28    1
    20    28    29    1
    21    28    30    1
    22     9    10    1
    23    10    11    1
    24    11    12   ar
    25    12    13   ar
    26    13    31    1
    27    31    32    1
    28    32    33    1
    29    33    34    1
    30    34    35    1
    31    35    36    1
    32    13    14   ar
    33    14    15   ar
    34    15    16   ar
    35    16    17   ar
    36    17    37    1
    37    37    38    2
    38    37    39   am
    39    39    41    1
    40    41    42    2
    41    41    43    2
    42    41    44    1
    43    44    45    1
    44    44    46    1
    45    17    18   ar
    46    18    19   ar
    47     6     1   ar
    48     9     7    1
    49    26    22    1
    50    19    11   ar
    51    12     4    1
    52    36    31    1
    53    19    14   ar
    54    30    23    1
    55    39    40    1
@<TRIPOS>MOLECULE
*****
 48 55 0 0 0
SMALL
GASTEIGER

@<TRIPOS>ATOM
      1 C         140.4419  143.7377  163.5132 C.ar    1  UNL1        0.1384
      2 C         141.1629  142.5068  163.9772 C.ar    1  UNL1        0.0369
      3 C         141.5068  141.4248  162.9968 C.ar    1  UNL1        0.0042
      4 C         141.1299  141.5736  161.5527 C.ar    1  UNL1        0.0117
      5 C         140.4090  142.8045  161.0887 C.ar    1  UNL1       -0.0176
      6 C         140.0650  143.8865  162.0690 C.ar    1  UNL1        0.0327
      7 C         139.9446  143.1507  159.7051 C.3     1  UNL1        0.0330
      8 C         139.4032  143.6866  158.4129 C.3     1  UNL1        0.0157
      9 C         140.0865  142.3516  158.4436 C.3     1  UNL1        0.0938
     10 C         140.7278  141.0089  158.2543 C.3     1  UNL1        0.1148
     11 N         141.3856  140.1336  159.2796 N.ar    1  UNL1       -0.3269
     12 C         141.5645  140.3850  160.7475 C.ar    1  UNL1        0.0555
     13 C         142.2842  139.2074  161.3351 C.ar    1  UNL1       -0.0053
     14 C         142.5501  138.2283  160.2303 C.ar    1  UNL1        0.0132
     15 C         143.2262  136.8893  160.2169 C.ar    1  UNL1        0.0013
     16 C         143.3469  136.1228  158.9332 C.ar    1  UNL1        0.0046
     17 C         142.7914  136.6953  157.6628 C.ar    1  UNL1        0.0563
     18 C         142.1154  138.0342  157.6762 C.ar    1  UNL1        0.0217
     19 C         141.9947  138.8008  158.9600 C.ar    1  UNL1        0.0597
     20 C         139.8054  142.2998  156.9710 C.2     1  UNL1        0.2268
     21 O         140.8411  142.7694  155.9928 O.2     1  UNL1       -0.2748
     22 N         138.4887  141.7783  156.4768 N.am    1  UNL1       -0.2800
     23 C         137.3623  141.2767  157.3310 C.3     1  UNL1        0.0913
     24 C         136.2446  140.8553  156.4236 C.3     1  UNL1        0.0230
     25 C         136.6803  141.0965  155.0086 C.3     1  UNL1        0.0230
     26 C         138.0672  141.6670  155.0416 C.3     1  UNL1        0.0913
     27 C         139.4336  142.2159  155.3745 C.3     1  UNL1        0.0922
     28 N         139.7147  142.2678  156.8470 N.3     1  UNL1       -0.2687
     29 C         141.0314  142.7892  157.3414 C.3     1  UNL1        0.0897
     30 C         138.6790  141.7981  157.8252 C.3     1  UNL1        0.0922
     31 C         142.6703  139.0385  162.7746 C.3     1  UNL1        0.0238
     32 C         141.7310  138.3621  163.7288 C.3     1  UNL1        0.0044
     33 C         142.1170  138.1932  165.1682 C.3     1  UNL1        0.0003
     34 C         143.4425  138.7007  165.6539 C.3     1  UNL1        0.0000
     35 C         144.3818  139.3771  164.6998 C.3     1  UNL1        0.0003
     36 C         143.9957  139.5460  163.2602 C.3     1  UNL1        0.0044
     37 C         142.9121  135.9289  156.3791 C.2     1  UNL1        0.2651
     38 O         144.0603  136.1954  155.4515 O.2     1  UNL1       -0.2685
     39 N         141.8845  134.8958  156.0229 N.am    1  UNL1       -0.1714
     40 H         141.1308  134.7209  156.6317 H       1  UNL1        0.1779
     41 S         142.0050  134.1293  154.7392 S.O2    1  UNL1        0.1154
     42 O         141.1882  135.1742  154.0385 O.2     1  UNL1       -0.1378
     43 O         142.8219  133.0844  155.4400 O.2     1  UNL1       -0.1378
     44 N         142.1256  133.3628  153.4555 N.3     1  UNL1       -0.1398
     45 C         142.6256  131.9486  153.4706 C.3     1  UNL1        0.1163
     46 C         141.7463  134.0104  152.1568 C.3     1  UNL1        0.1163
     47 C         138.8079  144.7581  165.2563 C.3     1  UNL1        0.2525
     48 O         140.0980  144.8196  164.4935 O.3     1  UNL1       -0.4714
@<TRIPOS>BOND
     1    47    48    1
     2    48     1    1
     3     1     2   ar
     4     2     3   ar
     5     3     4   ar
     6     4     5   ar
     7     5     6   ar
     8     5     7    1
     9     7     8    1
    10     8     9    1
    11     9    20    1
    12    20    21    2
    13    20    22   am
    14    22    23    1
    15    23    24    1
    16    24    25    1
    17    25    26    1
    18    26    27    1
    19    27    28    1
    20    28    29    1
    21    28    30    1
    22     9    10    1
    23    10    11    1
    24    11    12   ar
    25    12    13   ar
    26    13    31    1
    27    31    32    1
    28    32    33    1
    29    33    34    1
    30    34    35    1
    31    35    36    1
    32    13    14   ar
    33    14    15   ar
    34    15    16   ar
    35    16    17   ar
    36    17    37    1
    37    37    38    2
    38    37    39   am
    39    39    41    1
    40    41    42    2
    41    41    43    2
    42    41    44    1
    43    44    45    1
    44    44    46    1
    45    17    18   ar
    46    18    19   ar
    47     6     1   ar
    48     9     7    1
    49    26    22    1
    50    19    11   ar
    51    12     4    1
    52    36    31    1
    53    19    14   ar
    54    30    23    1
    55    39    40    1
@<TRIPOS>MOLECULE
*****
 48 55 0 0 0
SMALL
GASTEIGER

@<TRIPOS>ATOM
      1 C         143.1920  138.2133  169.6399 C.ar    1  UNL1        0.1384
      2 C         142.1997  139.2939  169.9523 C.ar    1  UNL1        0.0369
      3 C         141.7425  140.2277  168.8711 C.ar    1  UNL1        0.0042
      4 C         142.2775  140.0808  167.4776 C.ar    1  UNL1        0.0117
      5 C         143.2697  139.0002  167.1651 C.ar    1  UNL1       -0.0176
      6 C         143.7270  138.0664  168.2463 C.ar    1  UNL1        0.0327
      7 C         143.9236  138.6816  165.8532 C.3     1  UNL1        0.0330
      8 C         144.6815  138.1985  164.6523 C.3     1  UNL1        0.0157
      9 C         143.7466  139.3651  164.5297 C.3     1  UNL1        0.0938
     10 C         142.8720  140.5358  164.1913 C.3     1  UNL1        0.1148
     11 N         141.9585  141.3123  165.0927 N.ar    1  UNL1       -0.3269
     12 C         141.6939  141.1098  166.5552 C.ar    1  UNL1        0.0555
     13 C         140.7016  142.1453  166.9945 C.ar    1  UNL1       -0.0053
     14 C         140.3530  142.9878  165.8034 C.ar    1  UNL1        0.0132
     15 C         139.4284  144.1574  165.6372 C.ar    1  UNL1        0.0013
     16 C         139.2807  144.8120  164.2957 C.ar    1  UNL1        0.0046
     17 C         140.0575  144.2971  163.1204 C.ar    1  UNL1        0.0563
     18 C         140.9820  143.1276  163.2865 C.ar    1  UNL1        0.0217
     19 C         141.1298  142.4729  164.6281 C.ar    1  UNL1        0.0597
     20 C         144.1509  139.3932  163.0854 C.2     1  UNL1        0.2268
     21 O         145.4069  140.1014  162.6719 O.2     1  UNL1       -0.2748
     22 N         143.2992  138.7131  162.0549 N.am    1  UNL1       -0.2800
     23 C         142.0231  137.9695  162.3168 C.3     1  UNL1        0.0913
     24 C         141.5094  137.4541  161.0051 C.3     1  UNL1        0.0230
     25 C         142.4680  137.8792  159.9325 C.3     1  UNL1        0.0230
     26 C         143.5741  138.6573  160.5813 C.3     1  UNL1        0.0913
     27 C         144.5351  139.3859  161.4896 C.3     1  UNL1        0.0922
     28 N         144.1308  139.3577  162.9339 N.3     1  UNL1       -0.2687
     29 C         144.9824  140.0378  163.9646 C.3     1  UNL1        0.0897
     30 C         142.8748  138.6496  163.3474 C.3     1  UNL1        0.0922
     31 C         140.1541  142.3096  168.3812 C.3     1  UNL1        0.0238
     32 C         140.4519  143.5550  169.1625 C.3     1  UNL1        0.0044
     33 C         139.9045  143.7194  170.5492 C.3     1  UNL1        0.0003
     34 C         139.0591  142.6383  171.1549 C.3     1  UNL1        0.0000
     35 C         138.7613  141.3930  170.3736 C.3     1  UNL1        0.0003
     36 C         139.3088  141.2286  168.9868 C.3     1  UNL1        0.0044
     37 C         139.9098  144.9517  161.7789 C.2     1  UNL1        0.2651
     38 O         139.1614  146.2456  161.6540 O.2     1  UNL1       -0.2685
     39 N         140.5106  144.3123  160.5621 N.am    1  UNL1       -0.1714
     40 H         141.0018  143.4631  160.6441 H       1  UNL1        0.1779
     41 S         140.3629  144.9668  159.2206 S.O2    1  UNL1        0.1154
     42 O         139.1906  144.0816  158.9176 O.2     1  UNL1       -0.1378
     43 O         141.5354  145.8522  159.5236 O.2     1  UNL1       -0.1378
     44 N         140.2154  145.6214  157.8791 N.3     1  UNL1       -0.1398
     45 C         140.7891  144.9663  156.6577 C.3     1  UNL1        0.1163
     46 C         139.4942  146.9311  157.7589 C.3     1  UNL1        0.1163
     47 C         144.7221  136.2706  170.4365 C.3     1  UNL1        0.2525
     48 O         143.6492  137.2795  170.7211 O.3     1  UNL1       -0.4714
@<TRIPOS>BOND
     1    47    48    1
     2    48     1    1
     3     1     2   ar
     4     2     3   ar
     5     3     4   ar
     6     4     5   ar
     7     5     6   ar
     8     5     7    1
     9     7     8    1
    10     8     9    1
    11     9    20    1
    12    20    21    2
    13    20    22   am
    14    22    23    1
    15    23    24    1
    16    24    25    1
    17    25    26    1
    18    26    27    1
    19    27    28    1
    20    28    29    1
    21    28    30    1
    22     9    10    1
    23    10    11    1
    24    11    12   ar
    25    12    13   ar
    26    13    31    1
    27    31    32    1
    28    32    33    1
    29    33    34    1
    30    34    35    1
    31    35    36    1
    32    13    14   ar
    33    14    15   ar
    34    15    16   ar
    35    16    17   ar
    36    17    37    1
    37    37    38    2
    38    37    39   am
    39    39    41    1
    40    41    42    2
    41    41    43    2
    42    41    44    1
    43    44    45    1
    44    44    46    1
    45    17    18   ar
    46    18    19   ar
    47     6     1   ar
    48     9     7    1
    49    26    22    1
    50    19    11   ar
    51    12     4    1
    52    36    31    1
    53    19    14   ar
    54    30    23    1
    55    39    40    1
@<TRIPOS>MOLECULE
*****
 48 55 0 0 0
SMALL
GASTEIGER

@<TRIPOS>ATOM
      1 C         145.0551  142.5390  157.6814 C.ar    1  UNL1        0.1384
      2 C         144.4687  142.8845  156.3447 C.ar    1  UNL1        0.0369
      3 C         143.0258  142.5897  156.0599 C.ar    1  UNL1        0.0042
      4 C         142.1693  141.9494  157.1117 C.ar    1  UNL1        0.0117
      5 C         142.7557  141.6038  158.4484 C.ar    1  UNL1       -0.0176
      6 C         144.1986  141.8986  158.7333 C.ar    1  UNL1        0.0327
      7 C         142.0834  140.9663  159.6281 C.3     1  UNL1        0.0330
      8 C         141.6104  140.3458  160.9092 C.3     1  UNL1        0.0157
      9 C         140.6587  140.5168  159.7624 C.3     1  UNL1        0.0938
     10 C         139.5544  140.5939  158.7502 C.3     1  UNL1        0.1148
     11 N         139.6019  141.1394  157.3537 N.ar    1  UNL1       -0.3269
     12 C         140.7658  141.7427  156.6246 C.ar    1  UNL1        0.0555
     13 C         140.3008  142.1352  155.2536 C.ar    1  UNL1       -0.0053
     14 C         138.8496  141.7745  155.1355 C.ar    1  UNL1        0.0132
     15 C         137.8655  141.9270  154.0136 C.ar    1  UNL1        0.0013
     16 C         136.4496  141.4640  154.1898 C.ar    1  UNL1        0.0046
     17 C         136.0178  140.8486  155.4878 C.ar    1  UNL1        0.0563
     18 C         137.0018  140.6961  156.6096 C.ar    1  UNL1        0.0217
     19 C         138.4177  141.1591  156.4335 C.ar    1  UNL1        0.0597
     20 C         139.6371  139.8880  160.6630 C.2     1  UNL1        0.2268
     21 O         139.4538  138.3992  160.6647 O.2     1  UNL1       -0.2748
     22 N         138.7990  140.7479  161.5619 N.am    1  UNL1       -0.2800
     23 C         138.8692  142.2425  161.6688 C.3     1  UNL1        0.0913
     24 C         137.8570  142.6825  162.6847 C.3     1  UNL1        0.0230
     25 C         137.1614  141.4598  163.2056 C.3     1  UNL1        0.0230
     26 C         137.7435  140.2643  162.5117 C.3     1  UNL1        0.0913
     27 C         138.5024  139.2649  161.6722 C.3     1  UNL1        0.0922
     28 N         139.5239  139.8937  160.7716 N.3     1  UNL1       -0.2687
     29 C         140.3621  139.0338  159.8727 C.3     1  UNL1        0.0897
     30 C         139.7073  141.3825  160.7699 C.3     1  UNL1        0.0922
     31 C         141.1395  142.7759  154.1878 C.3     1  UNL1        0.0238
     32 C         141.2333  144.2707  154.1047 C.3     1  UNL1        0.0044
     33 C         142.0720  144.9114  153.0390 C.3     1  UNL1        0.0003
     34 C         142.8171  144.0574  152.0563 C.3     1  UNL1        0.0000
     35 C         142.7233  142.5627  152.1394 C.3     1  UNL1        0.0003
     36 C         141.8846  141.9219  153.2052 C.3     1  UNL1        0.0044
     37 C         134.6020  140.3856  155.6640 C.2     1  UNL1        0.2651
     38 O         134.2864  138.9192  155.6600 O.2     1  UNL1       -0.2685
     39 N         133.5017  141.3891  155.8442 N.am    1  UNL1       -0.1714
     40 H         133.7088  142.3515  155.8469 H       1  UNL1        0.1779
     41 S         132.0858  140.9262  156.0205 S.O2    1  UNL1        0.1154
     42 O         132.4387  140.3574  157.3628 O.2     1  UNL1       -0.1378
     43 O         131.7329  141.4950  154.6780 O.2     1  UNL1       -0.1378
     44 N         130.6700  140.4634  156.1966 N.3     1  UNL1       -0.1398
     45 C         130.3771  139.2391  157.0123 C.3     1  UNL1        0.1163
     46 C         129.5470  141.2248  155.5570 C.3     1  UNL1        0.1163
     47 C         147.5082  142.7749  156.8590 C.3     1  UNL1        0.2525
     48 O         146.4980  142.8338  157.9662 O.3     1  UNL1       -0.4714
@<TRIPOS>BOND
     1    47    48    1
     2    48     1    1
     3     1     2   ar
     4     2     3   ar
     5     3     4   ar
     6     4     5   ar
     7     5     6   ar
     8     5     7    1
     9     7     8    1
    10     8     9    1
    11     9    20    1
    12    20    21    2
    13    20    22   am
    14    22    23    1
    15    23    24    1
    16    24    25    1
    17    25    26    1
    18    26    27    1
    19    27    28    1
    20    28    29    1
    21    28    30    1
    22     9    10    1
    23    10    11    1
    24    11    12   ar
    25    12    13   ar
    26    13    31    1
    27    31    32    1
    28    32    33    1
    29    33    34    1
    30    34    35    1
    31    35    36    1
    32    13    14   ar
    33    14    15   ar
    34    15    16   ar
    35    16    17   ar
    36    17    37    1
    37    37    38    2
    38    37    39   am
    39    39    41    1
    40    41    42    2
    41    41    43    2
    42    41    44    1
    43    44    45    1
    44    44    46    1
    45    17    18   ar
    46    18    19   ar
    47     6     1   ar
    48     9     7    1
    49    26    22    1
    50    19    11   ar
    51    12     4    1
    52    36    31    1
    53    19    14   ar
    54    30    23    1
    55    39    40    1
@<TRIPOS>MOLECULE
*****
 48 55 0 0 0
SMALL
GASTEIGER

@<TRIPOS>ATOM
      1 C         140.4956  141.7353  154.0164 C.ar    1  UNL1        0.1384
      2 C         141.1078  140.4065  154.3476 C.ar    1  UNL1        0.0369
      3 C         141.5081  140.0962  155.7595 C.ar    1  UNL1        0.0042
      4 C         141.2962  141.1145  156.8402 C.ar    1  UNL1        0.0117
      5 C         140.6841  142.4433  156.5091 C.ar    1  UNL1       -0.0176
      6 C         140.2837  142.7537  155.0972 C.ar    1  UNL1        0.0327
      7 C         140.3874  143.5914  157.4277 C.3     1  UNL1        0.0330
      8 C         140.0126  144.8434  158.1638 C.3     1  UNL1        0.0157
      9 C         140.6297  143.6943  158.9045 C.3     1  UNL1        0.0938
     10 C         141.2284  142.6744  159.8272 C.3     1  UNL1        0.1148
     11 N         141.7328  141.2999  159.5012 N.ar    1  UNL1       -0.3269
     12 C         141.7630  140.6057  158.1719 C.ar    1  UNL1        0.0555
     13 C         142.3629  139.2457  158.3726 C.ar    1  UNL1       -0.0053
     14 C         142.7035  139.0994  159.8261 C.ar    1  UNL1        0.0132
     15 C         143.3181  137.9740  160.6047 C.ar    1  UNL1        0.0013
     16 C         143.5431  138.1183  162.0807 C.ar    1  UNL1        0.0046
     17 C         143.1536  139.3879  162.7781 C.ar    1  UNL1        0.0563
     18 C         142.5392  140.5132  161.9996 C.ar    1  UNL1        0.0217
     19 C         142.3141  140.3690  160.5236 C.ar    1  UNL1        0.0597
     20 C         140.5073  144.5602  160.1232 C.2     1  UNL1        0.2268
     21 O         141.4228  145.7346  160.3037 O.2     1  UNL1       -0.2748
     22 N         139.4693  144.2518  161.1612 N.am    1  UNL1       -0.2800
     23 C         138.4888  143.1174  161.1178 C.3     1  UNL1        0.0913
     24 C         137.6432  143.1882  162.3547 C.3     1  UNL1        0.0230
     25 C         138.1011  144.3662  163.1626 C.3     1  UNL1        0.0230
     26 C         139.2297  145.0235  162.4249 C.3     1  UNL1        0.0913
     27 C         140.3199  145.4663  161.4790 C.3     1  UNL1        0.0922
     28 N         140.4423  144.6003  160.2603 N.3     1  UNL1       -0.2687
     29 C         141.4802  144.9087  159.2222 C.3     1  UNL1        0.0897
     30 C         139.5267  143.4259  160.0797 C.3     1  UNL1        0.0922
     31 C         142.5835  138.2132  157.3072 C.3     1  UNL1        0.0238
     32 C         143.8030  138.2828  156.4364 C.3     1  UNL1        0.0044
     33 C         144.0237  137.2505  155.3709 C.3     1  UNL1        0.0003
     34 C         143.0249  136.1483  155.1761 C.3     1  UNL1        0.0000
     35 C         141.8055  136.0787  156.0468 C.3     1  UNL1        0.0003
     36 C         141.5849  137.1112  157.1124 C.3     1  UNL1        0.0044
     37 C         143.3787  139.5322  164.2541 C.2     1  UNL1        0.2651
     38 O         144.6124  138.9573  164.8844 O.2     1  UNL1       -0.2685
     39 N         142.3700  140.2515  165.0998 N.am    1  UNL1       -0.1714
     40 H         141.5602  140.6289  164.6861 H       1  UNL1        0.1779
     41 S         142.5949  140.3959  166.5757 S.O2    1  UNL1        0.1154
     42 O         143.2745  141.7127  166.3435 O.2     1  UNL1       -0.1378
     43 O         141.9153  139.0789  166.8080 O.2     1  UNL1       -0.1378
     44 N         142.8198  140.5402  168.0517 N.3     1  UNL1       -0.1398
     45 C         142.6567  139.3536  168.9548 C.3     1  UNL1        0.1163
     46 C         143.2078  141.8710  168.6247 C.3     1  UNL1        0.1163
     47 C         139.6890  143.4399  152.2294 C.3     1  UNL1        0.2525
     48 O         140.0953  142.0456  152.6046 O.3     1  UNL1       -0.4714
@<TRIPOS>BOND
     1    47    48    1
     2    48     1    1
     3     1     2   ar
     4     2     3   ar
     5     3     4   ar
     6     4     5   ar
     7     5     6   ar
     8     5     7    1
     9     7     8    1
    10     8     9    1
    11     9    20    1
    12    20    21    2
    13    20    22   am
    14    22    23    1
    15    23    24    1
    16    24    25    1
    17    25    26    1
    18    26    27    1
    19    27    28    1
    20    28    29    1
    21    28    30    1
    22     9    10    1
    23    10    11    1
    24    11    12   ar
    25    12    13   ar
    26    13    31    1
    27    31    32    1
    28    32    33    1
    29    33    34    1
    30    34    35    1
    31    35    36    1
    32    13    14   ar
    33    14    15   ar
    34    15    16   ar
    35    16    17   ar
    36    17    37    1
    37    37    38    2
    38    37    39   am
    39    39    41    1
    40    41    42    2
    41    41    43    2
    42    41    44    1
    43    44    45    1
    44    44    46    1
    45    17    18   ar
    46    18    19   ar
    47     6     1   ar
    48     9     7    1
    49    26    22    1
    50    19    11   ar
    51    12     4    1
    52    36    31    1
    53    19    14   ar
    54    30    23    1
    55    39    40    1
@<TRIPOS>MOLECULE
*****
 48 55 0 0 0
SMALL
GASTEIGER

@<TRIPOS>ATOM
      1 C         140.4479  143.7415  163.6747 C.ar    1  UNL1        0.1384
      2 C         141.1435  142.4891  164.1193 C.ar    1  UNL1        0.0369
      3 C         141.4802  141.4229  163.1194 C.ar    1  UNL1        0.0042
      4 C         141.1213  141.6090  161.6750 C.ar    1  UNL1        0.0117
      5 C         140.4256  142.8613  161.2303 C.ar    1  UNL1       -0.0176
      6 C         140.0889  143.9276  162.2302 C.ar    1  UNL1        0.0327
      7 C         139.9819  143.2449  159.8498 C.3     1  UNL1        0.0330
      8 C         139.4632  143.8173  158.5640 C.3     1  UNL1        0.0157
      9 C         140.1241  142.4708  158.5728 C.3     1  UNL1        0.0938
     10 C         140.7453  141.1219  158.3612 C.3     1  UNL1        0.1148
     11 N         141.3776  140.2140  159.3740 N.ar    1  UNL1       -0.3269
     12 C         141.5449  140.4308  160.8488 C.ar    1  UNL1        0.0555
     13 C         142.2389  139.2291  161.4182 C.ar    1  UNL1       -0.0053
     14 C         142.5004  138.2696  160.2952 C.ar    1  UNL1        0.0132
     15 C         143.1546  136.9201  160.2598 C.ar    1  UNL1        0.0013
     16 C         143.2764  136.1795  158.9611 C.ar    1  UNL1        0.0046
     17 C         142.7441  136.7883  157.6978 C.ar    1  UNL1        0.0563
     18 C         142.0900  138.1377  157.7332 C.ar    1  UNL1        0.0217
     19 C         141.9681  138.8784  159.0319 C.ar    1  UNL1        0.0597
     20 C         139.8580  142.4553  157.0967 C.2     1  UNL1        0.2268
     21 O         138.5817  141.8684  156.5708 O.2     1  UNL1       -0.2748
     22 N         140.8683  143.0267  156.1465 N.am    1  UNL1       -0.2800
     23 C         142.1825  143.6440  156.5231 C.3     1  UNL1        0.0913
     24 C         142.8680  144.0800  155.2621 C.3     1  UNL1        0.0230
     25 C         141.9775  143.7321  154.1062 C.3     1  UNL1        0.0230
     26 C         140.7416  143.0812  154.6528 C.3     1  UNL1        0.0913
     27 C         139.6298  142.4701  155.4712 C.3     1  UNL1        0.0922
     28 N         139.8959  142.4856  156.9474 N.3     1  UNL1       -0.2687
     29 C         138.8857  141.9142  157.8977 C.3     1  UNL1        0.0897
     30 C         141.1722  143.0725  157.4733 C.3     1  UNL1        0.0922
     31 C         142.6067  139.0229  162.8576 C.3     1  UNL1        0.0238
     32 C         143.9596  139.4404  163.3533 C.3     1  UNL1        0.0044
     33 C         144.3274  139.2342  164.7926 C.3     1  UNL1        0.0003
     34 C         143.3425  138.6106  165.7367 C.3     1  UNL1        0.0000
     35 C         141.9897  138.1932  165.2411 C.3     1  UNL1        0.0003
     36 C         141.6218  138.3994  163.8016 C.3     1  UNL1        0.0044
     37 C         142.8659  136.0478  156.3991 C.2     1  UNL1        0.2651
     38 O         144.1212  136.1612  155.5859 O.2     1  UNL1       -0.2685
     39 N         141.7324  135.1937  155.9135 N.am    1  UNL1       -0.1714
     40 H         140.9085  135.1193  156.4472 H       1  UNL1        0.1779
     41 S         141.8541  134.4531  154.6148 S.O2    1  UNL1        0.1154
     42 O         142.4063  133.2645  155.3443 O.2     1  UNL1       -0.1378
     43 O         141.3018  135.6418  153.8853 O.2     1  UNL1       -0.1378
     44 N         141.9758  133.7126  153.3161 N.3     1  UNL1       -0.1398
     45 C         142.5030  132.3084  153.2999 C.3     1  UNL1        0.1163
     46 C         141.5702  134.3762  152.0335 C.3     1  UNL1        0.1163
     47 C         138.7342  144.8736  165.2657 C.3     1  UNL1        0.2525
     48 O         140.1112  144.8077  164.6745 O.3     1  UNL1       -0.4714
@<TRIPOS>BOND
     1    47    48    1
     2    48     1    1
     3     1     2   ar
     4     2     3   ar
     5     3     4   ar
     6     4     5   ar
     7     5     6   ar
     8     5     7    1
     9     7     8    1
    10     8     9    1
    11     9    20    1
    12    20    21    2
    13    20    22   am
    14    22    23    1
    15    23    24    1
    16    24    25    1
    17    25    26    1
    18    26    27    1
    19    27    28    1
    20    28    29    1
    21    28    30    1
    22     9    10    1
    23    10    11    1
    24    11    12   ar
    25    12    13   ar
    26    13    31    1
    27    31    32    1
    28    32    33    1
    29    33    34    1
    30    34    35    1
    31    35    36    1
    32    13    14   ar
    33    14    15   ar
    34    15    16   ar
    35    16    17   ar
    36    17    37    1
    37    37    38    2
    38    37    39   am
    39    39    41    1
    40    41    42    2
    41    41    43    2
    42    41    44    1
    43    44    45    1
    44    44    46    1
    45    17    18   ar
    46    18    19   ar
    47     6     1   ar
    48     9     7    1
    49    26    22    1
    50    19    11   ar
    51    12     4    1
    52    36    31    1
    53    19    14   ar
    54    30    23    1
    55    39    40    1
