@<TRIPOS>MOLECULE
*****
 29 32 0 0 0
SMALL
GASTEIGER

@<TRIPOS>ATOM
      1 N         139.0007  144.0697  163.5946 N.3     1  UNL1       -0.2649
      2 C         138.3865  142.7033  163.5195 C.3     1  UNL1        0.0991
      3 C         138.8260  141.9306  164.7277 C.ar    1  UNL1       -0.0088
      4 C         138.5341  140.5324  165.1857 C.ar    1  UNL1       -0.0032
      5 C         139.1280  140.0230  166.4654 C.ar    1  UNL1       -0.0003
      6 C         140.0138  140.9118  167.2872 C.ar    1  UNL1       -0.0001
      7 C         140.3058  142.3100  166.8292 C.ar    1  UNL1       -0.0032
      8 C         139.7119  142.8194  165.5494 C.ar    1  UNL1       -0.0088
      9 C         139.8199  144.1415  164.8491 C.3     1  UNL1        0.0991
     10 C         140.6077  140.4025  168.5670 C.2     1  UNL1        0.0047
     11 C         141.6489  141.2096  169.2841 C.2     1  UNL1        0.0598
     12 C         142.2428  140.7002  170.5639 C.2     1  UNL1        0.2679
     13 O         141.5847  141.0163  171.8742 O.2     1  UNL1       -0.2681
     14 N         143.4949  139.8747  170.5333 N.am    1  UNL1       -0.1934
     15 O         144.0888  139.3654  171.8131 O.3     1  UNL1       -0.2949
     16 H         143.9268  139.6673  169.6733 H       1  UNL1        0.1825
     17 H         143.5444  139.6574  172.5609 H       1  UNL1        0.2414
     18 C         138.8264  145.1711  162.5913 C.3     1  UNL1        0.0774
     19 C         140.0290  145.8579  162.0149 C.3     1  UNL1        0.0446
     20 C         140.3039  145.1517  158.8408 C.3     1  UNL1        0.0517
     21 C         141.2497  144.7251  159.9241 C.2     1  UNL1        0.0551
     22 N         142.4878  143.8989  159.7386 N.2     1  UNL1       -0.2503
     23 C         143.1267  143.7129  161.0829 C.2     1  UNL1        0.0770
     24 C         144.3673  142.9878  161.5129 C.2     1  UNL1        0.0184
     25 C         144.7647  142.9739  162.9592 C.2     1  UNL1       -0.0027
     26 C         143.9214  143.6851  163.9756 C.2     1  UNL1       -0.0213
     27 C         142.6807  144.4102  163.5456 C.3     1  UNL1        0.0535
     28 C         142.2834  144.4241  162.0993 C.2     1  UNL1       -0.0030
     29 C         141.1233  145.0497  161.3831 C.2     1  UNL1       -0.0094
@<TRIPOS>BOND
     1    20    21    1
     2    21    22    2
     3    22    23    1
     4    23    24    2
     5    24    25    1
     6    25    26    2
     7    26    27    1
     8    27    28    1
     9    28    29    2
    10    29    19    1
    11    19    18    1
    12    18     1    1
    13     1     2    1
    14     2     3    1
    15     3     4   ar
    16     4     5   ar
    17     5     6   ar
    18     6    10    1
    19    10    11    2
    20    11    12    1
    21    12    13    2
    22    12    14   am
    23    14    15    1
    24     6     7   ar
    25     7     8   ar
    26     8     9    1
    27    29    21    1
    28     9     1    1
    29    28    23    1
    30     8     3   ar
    31    14    16    1
    32    15    17    1
@<TRIPOS>MOLECULE
*****
 29 32 0 0 0
SMALL
GASTEIGER

@<TRIPOS>ATOM
      1 N         138.7180  141.3632  161.4411 N.3     1  UNL1       -0.2649
      2 C         138.8055  139.8705  161.5598 C.3     1  UNL1        0.0991
      3 C         138.7677  139.5184  163.0174 C.ar    1  UNL1       -0.0088
      4 C         138.8198  138.2014  163.7335 C.ar    1  UNL1       -0.0032
      5 C         138.7611  138.1596  165.2318 C.ar    1  UNL1       -0.0003
      6 C         138.6503  139.4347  166.0139 C.ar    1  UNL1       -0.0001
      7 C         138.5981  140.7517  165.2978 C.ar    1  UNL1       -0.0032
      8 C         138.6568  140.7935  163.7996 C.ar    1  UNL1       -0.0088
      9 C         138.6261  141.9337  162.8254 C.3     1  UNL1        0.0991
     10 C         138.5916  139.3928  167.5122 C.2     1  UNL1        0.0047
     11 C         139.5334  140.2323  168.3235 C.2     1  UNL1        0.0598
     12 C         139.4747  140.1904  169.8217 C.2     1  UNL1        0.2679
     13 O         138.2009  139.8018  170.5118 O.2     1  UNL1       -0.2681
     14 N         140.6899  140.5371  170.6298 N.am    1  UNL1       -0.1934
     15 O         140.6312  140.4952  172.1281 O.3     1  UNL1       -0.2949
     16 H         141.5260  140.7921  170.1769 H       1  UNL1        0.1825
     17 H         139.7424  140.2274  172.4095 H       1  UNL1        0.2414
     18 C         138.7218  142.1477  160.1627 C.3     1  UNL1        0.0774
     19 C         139.5840  143.3686  160.0344 C.3     1  UNL1        0.0446
     20 C         141.9102  141.7514  158.4149 C.3     1  UNL1        0.0517
     21 C         142.1048  142.5608  159.6626 C.2     1  UNL1        0.0551
     22 N         143.4027  142.7691  160.3851 N.2     1  UNL1       -0.2503
     23 C         143.1357  143.6411  161.5760 C.2     1  UNL1        0.0770
     24 C         144.0357  144.1768  162.6498 C.2     1  UNL1        0.0184
     25 C         143.4726  145.0431  163.7372 C.2     1  UNL1       -0.0027
     26 C         142.0096  145.3738  163.7507 C.2     1  UNL1       -0.0213
     27 C         141.1096  144.8382  162.6770 C.3     1  UNL1        0.0535
     28 C         141.6726  143.9718  161.5896 C.2     1  UNL1       -0.0030
     29 C         141.0355  143.3042  160.4071 C.2     1  UNL1       -0.0094
@<TRIPOS>BOND
     1    20    21    1
     2    21    22    2
     3    22    23    1
     4    23    24    2
     5    24    25    1
     6    25    26    2
     7    26    27    1
     8    27    28    1
     9    28    29    2
    10    29    19    1
    11    19    18    1
    12    18     1    1
    13     1     2    1
    14     2     3    1
    15     3     4   ar
    16     4     5   ar
    17     5     6   ar
    18     6    10    1
    19    10    11    2
    20    11    12    1
    21    12    13    2
    22    12    14   am
    23    14    15    1
    24     6     7   ar
    25     7     8   ar
    26     8     9    1
    27    29    21    1
    28     9     1    1
    29    28    23    1
    30     8     3   ar
    31    14    16    1
    32    15    17    1
@<TRIPOS>MOLECULE
*****
 29 32 0 0 0
SMALL
GASTEIGER

@<TRIPOS>ATOM
      1 N         139.3989  138.0412  163.7627 N.3     1  UNL1       -0.2649
      2 C         140.8024  137.5185  163.8458 C.3     1  UNL1        0.0991
      3 C         141.4848  138.2032  164.9928 C.ar    1  UNL1       -0.0088
      4 C         142.8733  138.0875  165.5483 C.ar    1  UNL1       -0.0032
      5 C         143.2801  138.9177  166.7295 C.ar    1  UNL1       -0.0003
      6 C         142.2984  139.8635  167.3553 C.ar    1  UNL1       -0.0001
      7 C         140.9098  139.9792  166.7998 C.ar    1  UNL1       -0.0032
      8 C         140.5031  139.1490  165.6186 C.ar    1  UNL1       -0.0088
      9 C         139.2139  139.0489  164.8583 C.3     1  UNL1        0.0991
     10 C         142.7052  140.6937  168.5365 C.2     1  UNL1        0.0047
     11 C         141.6826  141.5163  169.2630 C.2     1  UNL1        0.0598
     12 C         142.0894  142.3465  170.4442 C.2     1  UNL1        0.2679
     13 O         141.3845  142.1783  171.7575 O.2     1  UNL1       -0.2681
     14 N         143.2011  143.3448  170.3121 N.am    1  UNL1       -0.1934
     15 O         143.6079  144.1750  171.4933 O.3     1  UNL1       -0.2949
     16 H         143.6638  143.4551  169.4501 H       1  UNL1        0.1825
     17 H         143.0561  143.9433  172.2567 H       1  UNL1        0.2414
     18 C         138.3624  137.6287  162.7600 C.3     1  UNL1        0.0774
     19 C         137.8094  138.6356  161.7954 C.3     1  UNL1        0.0446
     20 C         140.2508  138.6911  159.6307 C.3     1  UNL1        0.0517
     21 C         139.7462  139.8620  160.4207 C.2     1  UNL1        0.0551
     22 N         140.2751  141.2641  160.3545 N.2     1  UNL1       -0.2503
     23 C         139.4799  142.1051  161.3085 C.2     1  UNL1        0.0770
     24 C         139.5531  143.5604  161.6647 C.2     1  UNL1        0.0184
     25 C         138.6058  144.1333  162.6769 C.2     1  UNL1       -0.0027
     26 C         137.5853  143.2510  163.3327 C.2     1  UNL1       -0.0213
     27 C         137.5121  141.7958  162.9765 C.3     1  UNL1        0.0535
     28 C         138.4594  141.2229  161.9644 C.2     1  UNL1       -0.0030
     29 C         138.6240  139.8366  161.4157 C.2     1  UNL1       -0.0094
@<TRIPOS>BOND
     1    20    21    1
     2    21    22    2
     3    22    23    1
     4    23    24    2
     5    24    25    1
     6    25    26    2
     7    26    27    1
     8    27    28    1
     9    28    29    2
    10    29    19    1
    11    19    18    1
    12    18     1    1
    13     1     2    1
    14     2     3    1
    15     3     4   ar
    16     4     5   ar
    17     5     6   ar
    18     6    10    1
    19    10    11    2
    20    11    12    1
    21    12    13    2
    22    12    14   am
    23    14    15    1
    24     6     7   ar
    25     7     8   ar
    26     8     9    1
    27    29    21    1
    28     9     1    1
    29    28    23    1
    30     8     3   ar
    31    14    16    1
    32    15    17    1
@<TRIPOS>MOLECULE
*****
 29 32 0 0 0
SMALL
GASTEIGER

@<TRIPOS>ATOM
      1 N         141.8559  138.1382  162.3292 N.3     1  UNL1       -0.2649
      2 C         140.4559  138.6520  162.1678 C.3     1  UNL1        0.0991
      3 C         139.9441  139.0367  163.5243 C.ar    1  UNL1       -0.0088
      4 C         138.6313  139.6027  163.9783 C.ar    1  UNL1       -0.0032
      5 C         138.4022  139.8928  165.4320 C.ar    1  UNL1       -0.0003
      6 C         139.4859  139.6168  166.4317 C.ar    1  UNL1       -0.0001
      7 C         140.7987  139.0508  165.9777 C.ar    1  UNL1       -0.0032
      8 C         141.0278  138.7608  164.5240 C.ar    1  UNL1       -0.0088
      9 C         142.2094  138.2055  163.7854 C.3     1  UNL1        0.0991
     10 C         139.2568  139.9069  167.8855 C.2     1  UNL1        0.0047
     11 C         140.4103  140.2884  168.7651 C.2     1  UNL1        0.0598
     12 C         140.1812  140.5785  170.2188 C.2     1  UNL1        0.2679
     13 O         139.4462  139.5894  171.0742 O.2     1  UNL1       -0.2681
     14 N         140.6870  141.8576  170.8172 N.am    1  UNL1       -0.1934
     15 O         140.4578  142.1476  172.2709 O.3     1  UNL1       -0.2949
     16 H         141.1693  142.5067  170.2557 H       1  UNL1        0.1825
     17 H         139.9717  141.4118  172.6747 H       1  UNL1        0.2414
     18 C         142.7461  137.6440  161.2277 C.3     1  UNL1        0.0774
     19 C         143.9984  138.3940  160.8819 C.3     1  UNL1        0.0446
     20 C         143.2730  140.1593  158.2348 C.3     1  UNL1        0.0517
     21 C         143.6437  140.7030  159.5828 C.2     1  UNL1        0.0551
     22 N         143.7460  142.1535  159.9507 N.2     1  UNL1       -0.2503
     23 C         144.1427  142.2387  161.3948 C.2     1  UNL1        0.0770
     24 C         144.3923  143.4085  162.2998 C.2     1  UNL1        0.0184
     25 C         144.7848  143.1803  163.7294 C.2     1  UNL1       -0.0027
     26 C         144.9276  141.7824  164.2540 C.2     1  UNL1       -0.0213
     27 C         144.6780  140.6125  163.3490 C.3     1  UNL1        0.0535
     28 C         144.2855  140.8407  161.9194 C.2     1  UNL1       -0.0030
     29 C         143.9771  139.8916  160.7995 C.2     1  UNL1       -0.0094
@<TRIPOS>BOND
     1    20    21    1
     2    21    22    2
     3    22    23    1
     4    23    24    2
     5    24    25    1
     6    25    26    2
     7    26    27    1
     8    27    28    1
     9    28    29    2
    10    29    19    1
    11    19    18    1
    12    18     1    1
    13     1     2    1
    14     2     3    1
    15     3     4   ar
    16     4     5   ar
    17     5     6   ar
    18     6    10    1
    19    10    11    2
    20    11    12    1
    21    12    13    2
    22    12    14   am
    23    14    15    1
    24     6     7   ar
    25     7     8   ar
    26     8     9    1
    27    29    21    1
    28     9     1    1
    29    28    23    1
    30     8     3   ar
    31    14    16    1
    32    15    17    1
@<TRIPOS>MOLECULE
*****
 29 32 0 0 0
SMALL
GASTEIGER

@<TRIPOS>ATOM
      1 N         139.9949  138.1663  163.4953 N.3     1  UNL1       -0.2649
      2 C         138.7437  137.9681  164.2986 C.3     1  UNL1        0.0991
      3 C         138.9437  138.6176  165.6358 C.ar    1  UNL1       -0.0088
      4 C         138.0515  138.7405  166.8353 C.ar    1  UNL1       -0.0032
      5 C         138.5341  139.4630  168.0580 C.ar    1  UNL1       -0.0003
      6 C         139.9088  140.0627  168.0812 C.ar    1  UNL1       -0.0001
      7 C         140.8010  139.9398  166.8817 C.ar    1  UNL1       -0.0032
      8 C         140.3184  139.2172  165.6590 C.ar    1  UNL1       -0.0088
      9 C         140.9681  138.9383  164.3361 C.3     1  UNL1        0.0991
     10 C         140.3914  140.7852  169.3039 C.2     1  UNL1        0.0047
     11 C         141.5065  141.7824  169.1947 C.2     1  UNL1        0.0598
     12 C         141.9891  142.5050  170.4174 C.2     1  UNL1        0.2679
     13 O         141.3306  142.2594  171.7425 O.2     1  UNL1       -0.2681
     14 N         143.1302  143.4732  170.3149 N.am    1  UNL1       -0.1934
     15 O         143.6127  144.1957  171.5377 O.3     1  UNL1       -0.2949
     16 H         143.5624  143.6344  169.4452 H       1  UNL1        0.1825
     17 H         143.0833  143.9242  172.3037 H       1  UNL1        0.2414
     18 C         140.2314  137.6781  162.0968 C.3     1  UNL1        0.0774
     19 C         139.6898  138.4512  160.9309 C.3     1  UNL1        0.0446
     20 C         141.9626  139.9639  159.1432 C.3     1  UNL1        0.0517
     21 C         140.9495  140.6287  160.0272 C.2     1  UNL1        0.0551
     22 N         140.8031  142.1056  160.2448 N.2     1  UNL1       -0.2503
     23 C         139.6680  142.3232  161.2009 C.2     1  UNL1        0.0770
     24 C         139.0683  143.5702  161.7798 C.2     1  UNL1        0.0184
     25 C         137.9133  143.4748  162.7320 C.2     1  UNL1       -0.0027
     26 C         137.3581  142.1323  163.1055 C.2     1  UNL1       -0.0213
     27 C         137.9578  140.8852  162.5266 C.3     1  UNL1        0.0535
     28 C         139.1128  140.9807  161.5743 C.2     1  UNL1       -0.0030
     29 C         139.9048  139.9335  160.8490 C.2     1  UNL1       -0.0094
@<TRIPOS>BOND
     1    20    21    1
     2    21    22    2
     3    22    23    1
     4    23    24    2
     5    24    25    1
     6    25    26    2
     7    26    27    1
     8    27    28    1
     9    28    29    2
    10    29    19    1
    11    19    18    1
    12    18     1    1
    13     1     2    1
    14     2     3    1
    15     3     4   ar
    16     4     5   ar
    17     5     6   ar
    18     6    10    1
    19    10    11    2
    20    11    12    1
    21    12    13    2
    22    12    14   am
    23    14    15    1
    24     6     7   ar
    25     7     8   ar
    26     8     9    1
    27    29    21    1
    28     9     1    1
    29    28    23    1
    30     8     3   ar
    31    14    16    1
    32    15    17    1
@<TRIPOS>MOLECULE
*****
 29 32 0 0 0
SMALL
GASTEIGER

@<TRIPOS>ATOM
      1 N         141.7878  142.7737  166.3282 N.3     1  UNL1       -0.2649
      2 C         140.3286  143.1153  166.2651 C.3     1  UNL1        0.0991
      3 C         140.0619  143.7661  164.9402 C.ar    1  UNL1       -0.0088
      4 C         138.8075  144.3114  164.3243 C.ar    1  UNL1       -0.0032
      5 C         138.8475  144.9172  162.9527 C.ar    1  UNL1       -0.0003
      6 C         140.1419  144.9778  162.1970 C.ar    1  UNL1       -0.0001
      7 C         141.3962  144.4325  162.8129 C.ar    1  UNL1       -0.0032
      8 C         141.3562  143.8267  164.1845 C.ar    1  UNL1       -0.0088
      9 C         142.4229  143.2133  165.0423 C.3     1  UNL1        0.0991
     10 C         140.1818  145.5836  160.8253 C.2     1  UNL1        0.0047
     11 C         141.2006  145.1164  159.8285 C.2     1  UNL1        0.0598
     12 C         141.2406  145.7222  158.4568 C.2     1  UNL1        0.2679
     13 O         142.5459  146.1806  157.8772 O.2     1  UNL1       -0.2681
     14 N         139.9753  145.8697  157.6649 N.am    1  UNL1       -0.1934
     15 O         140.0153  146.4755  156.2933 O.3     1  UNL1       -0.2949
     16 H         139.1185  145.5689  158.0454 H       1  UNL1        0.1825
     17 H         140.9288  146.7155  156.0724 H       1  UNL1        0.2414
     18 C         142.4889  142.1091  167.4757 C.3     1  UNL1        0.0774
     19 C         142.9004  140.6703  167.3715 C.3     1  UNL1        0.0446
     20 C         144.3172  139.2833  164.7795 C.3     1  UNL1        0.0517
     21 C         142.8814  139.1312  165.1861 C.2     1  UNL1        0.0551
     22 N         141.8448  138.3149  164.4727 N.2     1  UNL1       -0.2503
     23 C         140.5528  138.4479  165.2232 C.2     1  UNL1        0.0770
     24 C         139.1903  137.8669  164.9867 C.2     1  UNL1        0.0184
     25 C         138.0660  138.1845  165.9274 C.2     1  UNL1       -0.0027
     26 C         138.3042  139.0830  167.1046 C.2     1  UNL1       -0.0213
     27 C         139.6667  139.6640  167.3411 C.3     1  UNL1        0.0535
     28 C         140.7910  139.3464  166.4004 C.2     1  UNL1       -0.0030
     29 C         142.2302  139.7687  166.3775 C.2     1  UNL1       -0.0094
@<TRIPOS>BOND
     1    20    21    1
     2    21    22    2
     3    22    23    1
     4    23    24    2
     5    24    25    1
     6    25    26    2
     7    26    27    1
     8    27    28    1
     9    28    29    2
    10    29    19    1
    11    19    18    1
    12    18     1    1
    13     1     2    1
    14     2     3    1
    15     3     4   ar
    16     4     5   ar
    17     5     6   ar
    18     6    10    1
    19    10    11    2
    20    11    12    1
    21    12    13    2
    22    12    14   am
    23    14    15    1
    24     6     7   ar
    25     7     8   ar
    26     8     9    1
    27    29    21    1
    28     9     1    1
    29    28    23    1
    30     8     3   ar
    31    14    16    1
    32    15    17    1
@<TRIPOS>MOLECULE
*****
 29 32 0 0 0
SMALL
GASTEIGER

@<TRIPOS>ATOM
      1 N         139.6262  140.0890  161.5843 N.3     1  UNL1       -0.2649
      2 C         139.2831  138.7030  162.0437 C.3     1  UNL1        0.0991
      3 C         139.1216  138.7356  163.5346 C.ar    1  UNL1       -0.0088
      4 C         138.7845  137.6664  164.5312 C.ar    1  UNL1       -0.0032
      5 C         138.6906  138.0035  165.9898 C.ar    1  UNL1       -0.0003
      6 C         138.9338  139.4097  166.4518 C.ar    1  UNL1       -0.0001
      7 C         139.2709  140.4788  165.4552 C.ar    1  UNL1       -0.0032
      8 C         139.3649  140.1418  163.9966 C.ar    1  UNL1       -0.0088
      9 C         139.6767  140.9783  162.7912 C.3     1  UNL1        0.0991
     10 C         138.8399  139.7467  167.9104 C.2     1  UNL1        0.0047
     11 C         140.0727  140.1353  168.6713 C.2     1  UNL1        0.0598
     12 C         139.9788  140.4723  170.1300 C.2     1  UNL1        0.2679
     13 O         139.3058  139.5237  171.0771 O.2     1  UNL1       -0.2681
     14 N         140.5580  141.7580  170.6414 N.am    1  UNL1       -0.1934
     15 O         140.4640  142.0951  172.1000 O.3     1  UNL1       -0.2949
     16 H         140.9997  142.3806  170.0197 H       1  UNL1        0.1825
     17 H         140.0030  141.3812  172.5678 H       1  UNL1        0.2414
     18 C         139.8751  140.5117  160.1667 C.3     1  UNL1        0.0774
     19 C         141.2580  140.8957  159.7303 C.3     1  UNL1        0.0446
     20 C         142.6972  137.9755  159.5057 C.3     1  UNL1        0.0517
     21 C         143.1096  139.0940  160.4161 C.2     1  UNL1        0.0551
     22 N         144.2560  139.0667  161.3831 N.2     1  UNL1       -0.2503
     23 C         144.3029  140.3920  162.0841 C.2     1  UNL1        0.0770
     24 C         145.2187  140.9374  163.1394 C.2     1  UNL1        0.0184
     25 C         145.0171  142.3293  163.6609 C.2     1  UNL1       -0.0027
     26 C         143.8998  143.1758  163.1271 C.2     1  UNL1       -0.0213
     27 C         142.9840  142.6304  162.0717 C.3     1  UNL1        0.0535
     28 C         143.1855  141.2385  161.5502 C.2     1  UNL1       -0.0030
     29 C         142.4481  140.4363  160.5194 C.2     1  UNL1       -0.0094
@<TRIPOS>BOND
     1    20    21    1
     2    21    22    2
     3    22    23    1
     4    23    24    2
     5    24    25    1
     6    25    26    2
     7    26    27    1
     8    27    28    1
     9    28    29    2
    10    29    19    1
    11    19    18    1
    12    18     1    1
    13     1     2    1
    14     2     3    1
    15     3     4   ar
    16     4     5   ar
    17     5     6   ar
    18     6    10    1
    19    10    11    2
    20    11    12    1
    21    12    13    2
    22    12    14   am
    23    14    15    1
    24     6     7   ar
    25     7     8   ar
    26     8     9    1
    27    29    21    1
    28     9     1    1
    29    28    23    1
    30     8     3   ar
    31    14    16    1
    32    15    17    1
@<TRIPOS>MOLECULE
*****
 29 32 0 0 0
SMALL
GASTEIGER

@<TRIPOS>ATOM
      1 N         138.0804  139.9302  161.2696 N.3     1  UNL1       -0.2649
      2 C         138.5485  138.5673  161.6859 C.3     1  UNL1        0.0991
      3 C         138.5987  138.5323  163.1847 C.ar    1  UNL1       -0.0088
      4 C         138.9860  137.4523  164.1509 C.ar    1  UNL1       -0.0032
      5 C         138.9362  137.7136  165.6271 C.ar    1  UNL1       -0.0003
      6 C         138.4991  139.0548  166.1371 C.ar    1  UNL1       -0.0001
      7 C         138.1118  140.1348  165.1709 C.ar    1  UNL1       -0.0032
      8 C         138.1616  139.8735  163.6946 C.ar    1  UNL1       -0.0088
      9 C         137.8412  140.7375  162.5111 C.3     1  UNL1        0.0991
     10 C         138.4493  139.3160  167.6133 C.2     1  UNL1        0.0047
     11 C         139.5612  140.0709  168.2794 C.2     1  UNL1        0.0598
     12 C         139.5114  140.3321  169.7556 C.2     1  UNL1        0.2679
     13 O         138.2595  140.8738  170.3796 O.2     1  UNL1       -0.2681
     14 N         140.7135  140.0516  170.6079 N.am    1  UNL1       -0.1934
     15 O         140.6636  140.3129  172.0841 O.3     1  UNL1       -0.2949
     16 H         141.5351  139.6961  170.1984 H       1  UNL1        0.1825
     17 H         139.7891  140.6586  172.3219 H       1  UNL1        0.2414
     18 C         137.8855  140.4030  159.8594 C.3     1  UNL1        0.0774
     19 C         138.9952  141.1196  159.1485 C.3     1  UNL1        0.0446
     20 C         139.9111  143.8702  160.6467 C.3     1  UNL1        0.0517
     21 C         140.7253  142.6157  160.5317 C.2     1  UNL1        0.0551
     22 N         142.1035  142.4052  161.0851 N.2     1  UNL1       -0.2503
     23 C         142.5343  141.0108  160.7386 C.2     1  UNL1        0.0770
     24 C         143.7954  140.2500  161.0228 C.2     1  UNL1        0.0184
     25 C         143.9445  138.8380  160.5394 C.2     1  UNL1       -0.0027
     26 C         142.8325  138.1866  159.7717 C.2     1  UNL1       -0.0213
     27 C         141.5714  138.9474  159.4875 C.3     1  UNL1        0.0535
     28 C         141.4223  140.3595  159.9709 C.2     1  UNL1       -0.0030
     29 C         140.3043  141.3514  159.8431 C.2     1  UNL1       -0.0094
@<TRIPOS>BOND
     1    20    21    1
     2    21    22    2
     3    22    23    1
     4    23    24    2
     5    24    25    1
     6    25    26    2
     7    26    27    1
     8    27    28    1
     9    28    29    2
    10    29    19    1
    11    19    18    1
    12    18     1    1
    13     1     2    1
    14     2     3    1
    15     3     4   ar
    16     4     5   ar
    17     5     6   ar
    18     6    10    1
    19    10    11    2
    20    11    12    1
    21    12    13    2
    22    12    14   am
    23    14    15    1
    24     6     7   ar
    25     7     8   ar
    26     8     9    1
    27    29    21    1
    28     9     1    1
    29    28    23    1
    30     8     3   ar
    31    14    16    1
    32    15    17    1
@<TRIPOS>MOLECULE
*****
 29 32 0 0 0
SMALL
GASTEIGER

@<TRIPOS>ATOM
      1 N         140.1798  140.2496  165.1486 N.3     1  UNL1       -0.2649
      2 C         139.4499  140.6439  166.3983 C.3     1  UNL1        0.0991
      3 C         140.2706  140.2019  167.5735 C.ar    1  UNL1       -0.0088
      4 C         140.0513  140.3210  169.0525 C.ar    1  UNL1       -0.0032
      5 C         141.0691  139.7726  170.0082 C.ar    1  UNL1       -0.0003
      6 C         142.3062  139.1051  169.4848 C.ar    1  UNL1       -0.0001
      7 C         142.5256  138.9860  168.0057 C.ar    1  UNL1       -0.0032
      8 C         141.5078  139.5344  167.0500 C.ar    1  UNL1       -0.0088
      9 C         141.4516  139.5638  165.5514 C.3     1  UNL1        0.0991
     10 C         143.3240  138.5567  170.4405 C.2     1  UNL1        0.0047
     11 C         143.5242  137.0745  170.5540 C.2     1  UNL1        0.0598
     12 C         144.5420  136.5260  171.5096 C.2     1  UNL1        0.2679
     13 O         145.7062  137.3721  171.9325 O.2     1  UNL1       -0.2681
     14 N         144.3956  135.1315  172.0424 N.am    1  UNL1       -0.1934
     15 O         145.4134  134.5831  172.9981 O.3     1  UNL1       -0.2949
     16 H         143.6315  134.5762  171.7649 H       1  UNL1        0.1825
     17 H         146.0941  135.2536  173.1654 H       1  UNL1        0.2414
     18 C         139.7187  140.4974  163.7429 C.3     1  UNL1        0.0774
     19 C         140.1798  141.7206  163.0070 C.3     1  UNL1        0.0446
     20 C         140.1515  144.6895  164.3615 C.3     1  UNL1        0.0517
     21 C         141.3660  143.8446  164.1145 C.2     1  UNL1        0.0551
     22 N         142.7809  144.2161  164.4466 N.2     1  UNL1       -0.2503
     23 C         143.6683  143.0810  164.0293 C.2     1  UNL1        0.0770
     24 C         145.1533  142.8859  164.1104 C.2     1  UNL1        0.0184
     25 C         145.7720  141.6178  163.6014 C.2     1  UNL1       -0.0027
     26 C         144.9056  140.5448  163.0113 C.2     1  UNL1       -0.0213
     27 C         143.4206  140.7399  162.9302 C.3     1  UNL1        0.0535
     28 C         142.8020  142.0081  163.4392 C.2     1  UNL1       -0.0030
     29 C         141.3791  142.4800  163.4919 C.2     1  UNL1       -0.0094
@<TRIPOS>BOND
     1    20    21    1
     2    21    22    2
     3    22    23    1
     4    23    24    2
     5    24    25    1
     6    25    26    2
     7    26    27    1
     8    27    28    1
     9    28    29    2
    10    29    19    1
    11    19    18    1
    12    18     1    1
    13     1     2    1
    14     2     3    1
    15     3     4   ar
    16     4     5   ar
    17     5     6   ar
    18     6    10    1
    19    10    11    2
    20    11    12    1
    21    12    13    2
    22    12    14   am
    23    14    15    1
    24     6     7   ar
    25     7     8   ar
    26     8     9    1
    27    29    21    1
    28     9     1    1
    29    28    23    1
    30     8     3   ar
    31    14    16    1
    32    15    17    1
