@<TRIPOS>MOLECULE
*****
 38 41 0 0 0
SMALL
GASTEIGER

@<TRIPOS>ATOM
      1 C         143.2612  140.3249  163.1319 C.ar    1  UNL1        0.1200
      2 N         142.5336  139.9952  164.4015 N.ar    1  UNL1       -0.2309
      3 C         143.0769  140.8742  165.4888 C.ar    1  UNL1        0.0997
      4 C         144.1404  141.7471  164.8911 C.ar    1  UNL1        0.0961
      5 N         144.2542  141.4076  163.4345 N.ar    1  UNL1       -0.3123
      6 C         142.6345  140.8794  166.9221 C.ar    1  UNL1        0.0193
      7 C         142.6956  139.6173  167.7304 C.ar    1  UNL1        0.0038
      8 C         142.2532  139.6223  169.1636 C.ar    1  UNL1        0.0296
      9 C         141.7498  140.8897  169.7886 C.ar    1  UNL1        0.1440
     10 F         141.3074  140.8948  171.2218 F       1  UNL1       -0.2042
     11 C         141.6887  142.1518  168.9803 C.ar    1  UNL1        0.0988
     12 C         142.1311  142.1466  167.5470 C.ar    1  UNL1        0.0077
     13 C         141.1853  143.4190  169.6053 C.3     1  UNL1        0.4207
     14 F         140.6819  144.6863  170.2303 F       1  UNL1       -0.1658
     15 F         139.9130  143.3010  168.8197 F       1  UNL1       -0.1658
     16 F         142.4576  143.5370  170.3910 F       1  UNL1       -0.1658
     17 N         142.5837  138.4032  159.1197 N.pl3   1  UNL1       -0.2931
     18 C         142.4610  139.8907  159.2691 C.3     1  UNL1        0.0926
     19 C         142.6868  140.5313  160.6065 C.3     1  UNL1        0.0290
     20 C         143.0353  139.6843  161.7945 C.3     1  UNL1        0.0603
     21 C         143.1580  138.1969  161.6451 C.3     1  UNL1        0.0290
     22 C         142.9321  137.5563  160.3076 C.3     1  UNL1        0.0926
     23 C         140.9611  137.5547  157.2765 C.ar    1  UNL1        0.0628
     24 C         140.7353  136.9142  155.9391 C.ar    1  UNL1        0.1298
     25 N         139.3385  136.7062  155.4333 N.pl3   1  UNL1       -0.3425
     26 N         141.9063  136.4816  155.1074 N.ar    1  UNL1       -0.2094
     27 C         143.3030  136.6895  155.6131 C.ar    1  UNL1        0.2012
     28 N         143.5288  137.3301  156.9505 N.ar    1  UNL1       -0.2089
     29 C         142.3578  137.7626  157.7822 C.ar    1  UNL1        0.1361
     30 H         138.5699  136.9901  155.9792 H       1  UNL1        0.1437
     31 H         139.1903  136.2858  154.5555 H       1  UNL1        0.1437
     32 C         139.2199  139.3646  157.9416 C.2     1  UNL1        0.0002
     33 C         139.7901  137.9873  158.1082 C.2     1  UNL1        0.0056
     34 C         145.1958  142.0399  162.4529 C.3     1  UNL1        0.1245
     35 C         144.7400  143.1976  161.6152 C.3     1  UNL1        0.0970
     36 N         143.6391  144.0907  162.1055 N.3     1  UNL1       -0.2687
     37 C         143.8857  145.0241  163.2534 C.3     1  UNL1        0.0897
     38 C         142.2915  144.0503  161.4478 C.3     1  UNL1        0.0897
@<TRIPOS>BOND
     1    32    33    2
     2    33    23    1
     3    23    24   ar
     4    24    25    1
     5    24    26   ar
     6    26    27   ar
     7    27    28   ar
     8    28    29   ar
     9    29    17    1
    10    17    18    1
    11    18    19    1
    12    19    20    1
    13    20     1    1
    14     1     2   ar
    15     2     3   ar
    16     3     6    1
    17     6     7   ar
    18     7     8   ar
    19     8     9   ar
    20     9    10    1
    21     9    11   ar
    22    11    13    1
    23    13    14    1
    24    13    15    1
    25    13    16    1
    26    11    12   ar
    27     3     4   ar
    28     4     5   ar
    29     5    34    1
    30    34    35    1
    31    35    36    1
    32    36    37    1
    33    36    38    1
    34    20    21    1
    35    21    22    1
    36    29    23   ar
    37    22    17    1
    38     5     1   ar
    39    12     6   ar
    40    25    30    1
    41    25    31    1
@<TRIPOS>MOLECULE
*****
 38 41 0 0 0
SMALL
GASTEIGER

@<TRIPOS>ATOM
      1 C         142.4007  139.6902  161.9957 C.ar    1  UNL1        0.1200
      2 N         141.6456  138.8333  161.0234 N.ar    1  UNL1       -0.2309
      3 C         142.4329  138.7754  159.7479 C.ar    1  UNL1        0.0997
      4 C         143.6746  139.5966  159.9320 C.ar    1  UNL1        0.0961
      5 N         143.6547  140.1619  161.3212 N.ar    1  UNL1       -0.3123
      6 C         142.0464  138.0276  158.5064 C.ar    1  UNL1        0.0193
      7 C         140.7931  138.3955  157.7688 C.ar    1  UNL1        0.0038
      8 C         140.4066  137.6478  156.5273 C.ar    1  UNL1        0.0296
      9 C         141.2734  136.5320  156.0232 C.ar    1  UNL1        0.1440
     10 F         140.8869  135.7843  154.7817 F       1  UNL1       -0.2042
     11 C         142.5266  136.1642  156.7608 C.ar    1  UNL1        0.0988
     12 C         142.9131  136.9120  158.0023 C.ar    1  UNL1        0.0077
     13 C         143.3934  135.0485  156.2568 C.3     1  UNL1        0.4207
     14 F         144.2602  133.9329  155.7528 F       1  UNL1       -0.1658
     15 F         144.1429  136.0204  155.3944 F       1  UNL1       -0.1658
     16 F         142.6439  134.0767  157.1191 F       1  UNL1       -0.1658
     17 N         141.1273  140.6733  166.1984 N.pl3   1  UNL1       -0.2931
     18 C         140.6542  141.5197  165.0539 C.3     1  UNL1        0.0926
     19 C         141.0786  141.1920  163.6531 C.3     1  UNL1        0.0290
     20 C         141.9762  140.0179  163.3966 C.3     1  UNL1        0.0603
     21 C         142.4494  139.1714  164.5410 C.3     1  UNL1        0.0290
     22 C         142.0249  139.4991  165.9419 C.3     1  UNL1        0.0926
     23 C         139.5766  140.2438  168.2382 C.ar    1  UNL1        0.0628
     24 C         139.1522  140.5716  169.6391 C.ar    1  UNL1        0.1298
     25 N         138.0259  139.8144  170.2781 N.pl3   1  UNL1       -0.3425
     26 N         139.8541  141.6565  170.4010 N.ar    1  UNL1       -0.2094
     27 C         140.9803  142.4136  169.7620 C.ar    1  UNL1        0.2012
     28 N         141.4047  142.0859  168.3612 N.ar    1  UNL1       -0.2089
     29 C         140.7029  141.0010  167.5993 C.ar    1  UNL1        0.1361
     30 H         137.5653  139.1024  169.7780 H       1  UNL1        0.1437
     31 H         137.7474  140.0296  171.1975 H       1  UNL1        0.1437
     32 C         138.0200  139.5057  166.2935 C.2     1  UNL1        0.0002
     33 C         138.8748  139.1590  167.4763 C.2     1  UNL1        0.0056
     34 C         144.7045  141.0441  161.9292 C.3     1  UNL1        0.1245
     35 C         144.5223  142.5330  161.9338 C.3     1  UNL1        0.0970
     36 N         144.3227  143.2602  163.2305 N.3     1  UNL1       -0.2687
     37 C         144.5299  142.5436  164.5318 C.3     1  UNL1        0.0897
     38 C         143.9160  144.7040  163.2257 C.3     1  UNL1        0.0897
@<TRIPOS>BOND
     1    32    33    2
     2    33    23    1
     3    23    24   ar
     4    24    25    1
     5    24    26   ar
     6    26    27   ar
     7    27    28   ar
     8    28    29   ar
     9    29    17    1
    10    17    18    1
    11    18    19    1
    12    19    20    1
    13    20     1    1
    14     1     2   ar
    15     2     3   ar
    16     3     6    1
    17     6     7   ar
    18     7     8   ar
    19     8     9   ar
    20     9    10    1
    21     9    11   ar
    22    11    13    1
    23    13    14    1
    24    13    15    1
    25    13    16    1
    26    11    12   ar
    27     3     4   ar
    28     4     5   ar
    29     5    34    1
    30    34    35    1
    31    35    36    1
    32    36    37    1
    33    36    38    1
    34    20    21    1
    35    21    22    1
    36    29    23   ar
    37    22    17    1
    38     5     1   ar
    39    12     6   ar
    40    25    30    1
    41    25    31    1
@<TRIPOS>MOLECULE
*****
 38 41 0 0 0
SMALL
GASTEIGER

@<TRIPOS>ATOM
      1 C         140.9317  139.2065  163.3099 C.ar    1  UNL1        0.1200
      2 N         141.4259  139.8811  164.5551 N.ar    1  UNL1       -0.2309
      3 C         140.4688  139.5634  165.6655 C.ar    1  UNL1        0.0997
      4 C         139.3830  138.6924  165.1066 C.ar    1  UNL1        0.0961
      5 N         139.6691  138.4718  163.6507 N.ar    1  UNL1       -0.3123
      6 C         140.5783  140.0340  167.0856 C.ar    1  UNL1        0.0193
      7 C         139.3963  139.9308  168.0032 C.ar    1  UNL1        0.0038
      8 C         139.5056  140.4014  169.4231 C.ar    1  UNL1        0.0296
      9 C         140.7973  140.9753  169.9257 C.ar    1  UNL1        0.1440
     10 F         140.9068  141.4460  171.3456 F       1  UNL1       -0.2042
     11 C         141.9794  141.0786  169.0081 C.ar    1  UNL1        0.0988
     12 C         141.8699  140.6079  167.5880 C.ar    1  UNL1        0.0077
     13 C         143.2709  141.6525  169.5105 C.3     1  UNL1        0.4207
     14 F         144.5625  142.2264  170.0129 F       1  UNL1       -0.1658
     15 F         143.0934  142.8396  168.6110 F       1  UNL1       -0.1658
     16 F         143.4485  140.4654  170.4100 F       1  UNL1       -0.1658
     17 N         142.8923  139.3597  159.2624 N.pl3   1  UNL1       -0.2931
     18 C         141.9801  140.4686  159.6963 C.3     1  UNL1        0.0926
     19 C         141.3265  140.4175  161.0455 C.3     1  UNL1        0.0290
     20 C         141.5852  139.2575  161.9608 C.3     1  UNL1        0.0603
     21 C         142.4975  138.1487  161.5268 C.3     1  UNL1        0.0290
     22 C         143.1510  138.1998  160.1776 C.3     1  UNL1        0.0926
     23 C         143.1174  138.4593  156.8357 C.ar    1  UNL1        0.0628
     24 C         143.7710  138.5105  155.4866 C.ar    1  UNL1        0.1298
     25 N         143.3425  137.5589  154.4091 N.pl3   1  UNL1       -0.3425
     26 N         144.8530  139.5132  155.2149 N.ar    1  UNL1       -0.2094
     27 C         145.2815  140.4647  156.2924 C.ar    1  UNL1        0.2012
     28 N         144.6279  140.4135  157.6415 N.ar    1  UNL1       -0.2089
     29 C         143.5459  139.4109  157.9132 C.ar    1  UNL1        0.1361
     30 H         142.6324  136.9008  154.5874 H       1  UNL1        0.1437
     31 H         143.7715  137.5925  153.5236 H       1  UNL1        0.1437
     32 C         140.5960  137.8405  156.9322 C.2     1  UNL1        0.0002
     33 C         142.0354  137.4566  157.1074 C.2     1  UNL1        0.0056
     34 C         138.8384  137.6592  162.7023 C.3     1  UNL1        0.1245
     35 C         137.6620  138.2832  162.0118 C.3     1  UNL1        0.0970
     36 N         137.7496  139.6930  161.5071 N.3     1  UNL1       -0.2687
     37 C         137.9420  139.9548  160.0428 C.3     1  UNL1        0.0897
     38 C         137.6447  140.8410  162.4668 C.3     1  UNL1        0.0897
@<TRIPOS>BOND
     1    32    33    2
     2    33    23    1
     3    23    24   ar
     4    24    25    1
     5    24    26   ar
     6    26    27   ar
     7    27    28   ar
     8    28    29   ar
     9    29    17    1
    10    17    18    1
    11    18    19    1
    12    19    20    1
    13    20     1    1
    14     1     2   ar
    15     2     3   ar
    16     3     6    1
    17     6     7   ar
    18     7     8   ar
    19     8     9   ar
    20     9    10    1
    21     9    11   ar
    22    11    13    1
    23    13    14    1
    24    13    15    1
    25    13    16    1
    26    11    12   ar
    27     3     4   ar
    28     4     5   ar
    29     5    34    1
    30    34    35    1
    31    35    36    1
    32    36    37    1
    33    36    38    1
    34    20    21    1
    35    21    22    1
    36    29    23   ar
    37    22    17    1
    38     5     1   ar
    39    12     6   ar
    40    25    30    1
    41    25    31    1
@<TRIPOS>MOLECULE
*****
 38 41 0 0 0
SMALL
GASTEIGER

@<TRIPOS>ATOM
      1 C         141.5068  140.9184  162.8222 C.ar    1  UNL1        0.1200
      2 N         141.4818  140.3514  164.2107 N.ar    1  UNL1       -0.2309
      3 C         141.0845  141.4491  165.1526 C.ar    1  UNL1        0.0997
      4 C         140.8640  142.6946  164.3462 C.ar    1  UNL1        0.0961
      5 N         141.1249  142.3666  162.9059 N.ar    1  UNL1       -0.3123
      6 C         140.9341  141.3235  166.6397 C.ar    1  UNL1        0.0193
      7 C         139.9357  140.3627  167.2141 C.ar    1  UNL1        0.0038
      8 C         139.7853  140.2370  168.7012 C.ar    1  UNL1        0.0296
      9 C         140.6334  141.0722  169.6140 C.ar    1  UNL1        0.1440
     10 F         140.4831  140.9466  171.1011 F       1  UNL1       -0.2042
     11 C         141.6319  142.0330  169.0397 C.ar    1  UNL1        0.0988
     12 C         141.7823  142.1586  167.5525 C.ar    1  UNL1        0.0077
     13 C         142.4800  142.8682  169.9524 C.3     1  UNL1        0.4207
     14 F         143.3281  143.7033  170.8652 F       1  UNL1       -0.1658
     15 F         141.4043  143.9125  169.9964 F       1  UNL1       -0.1658
     16 F         143.5558  141.8238  169.9084 F       1  UNL1       -0.1658
     17 N         142.5450  138.6696  159.0652 N.pl3   1  UNL1       -0.2931
     18 C         143.6156  138.9966  160.0637 C.3     1  UNL1        0.0926
     19 C         143.2695  139.7461  161.3160 C.3     1  UNL1        0.0290
     20 C         141.8528  140.1688  161.5699 C.3     1  UNL1        0.0603
     21 C         140.7822  139.8418  160.5714 C.3     1  UNL1        0.0290
     22 C         141.1284  139.0922  159.3191 C.3     1  UNL1        0.0926
     23 C         143.3636  138.6645  156.5995 C.ar    1  UNL1        0.0628
     24 C         143.7097  137.9149  155.3472 C.ar    1  UNL1        0.1298
     25 N         144.1822  138.6594  154.1337 N.pl3   1  UNL1       -0.3425
     26 N         143.5833  136.4207  155.3083 N.ar    1  UNL1       -0.2094
     27 C         143.1109  135.6762  156.5217 C.ar    1  UNL1        0.2012
     28 N         142.7648  136.4258  157.7740 N.ar    1  UNL1       -0.2089
     29 C         142.8911  137.9200  157.8129 C.ar    1  UNL1        0.1361
     30 H         144.2652  139.6401  154.1592 H       1  UNL1        0.1437
     31 H         144.4094  138.1674  153.3118 H       1  UNL1        0.1437
     32 C         144.7892  140.7912  157.0407 C.2     1  UNL1        0.0002
     33 C         143.4900  140.1586  156.6383 C.2     1  UNL1        0.0056
     34 C         141.0222  143.3194  161.7521 C.3     1  UNL1        0.1245
     35 C         142.0871  144.3534  161.5360 C.3     1  UNL1        0.0970
     36 N         143.3983  144.2414  162.2558 N.3     1  UNL1       -0.2687
     37 C         144.4425  143.2818  161.7672 C.3     1  UNL1        0.0897
     38 C         143.6653  145.0890  163.4642 C.3     1  UNL1        0.0897
@<TRIPOS>BOND
     1    32    33    2
     2    33    23    1
     3    23    24   ar
     4    24    25    1
     5    24    26   ar
     6    26    27   ar
     7    27    28   ar
     8    28    29   ar
     9    29    17    1
    10    17    18    1
    11    18    19    1
    12    19    20    1
    13    20     1    1
    14     1     2   ar
    15     2     3   ar
    16     3     6    1
    17     6     7   ar
    18     7     8   ar
    19     8     9   ar
    20     9    10    1
    21     9    11   ar
    22    11    13    1
    23    13    14    1
    24    13    15    1
    25    13    16    1
    26    11    12   ar
    27     3     4   ar
    28     4     5   ar
    29     5    34    1
    30    34    35    1
    31    35    36    1
    32    36    37    1
    33    36    38    1
    34    20    21    1
    35    21    22    1
    36    29    23   ar
    37    22    17    1
    38     5     1   ar
    39    12     6   ar
    40    25    30    1
    41    25    31    1
@<TRIPOS>MOLECULE
*****
 38 41 0 0 0
SMALL
GASTEIGER

@<TRIPOS>ATOM
      1 C         139.4821  140.7580  163.8203 C.ar    1  UNL1        0.1200
      2 N         139.9140  141.3945  165.1081 N.ar    1  UNL1       -0.2309
      3 C         139.7486  140.3831  166.2034 C.ar    1  UNL1        0.0997
      4 C         139.2144  139.1214  165.5925 C.ar    1  UNL1        0.0961
      5 N         139.0497  139.3532  164.1197 N.ar    1  UNL1       -0.3123
      6 C         140.0622  140.5959  167.6547 C.ar    1  UNL1        0.0193
      7 C         139.1288  140.0765  168.7078 C.ar    1  UNL1        0.0038
      8 C         139.4424  140.2892  170.1590 C.ar    1  UNL1        0.0296
      9 C         140.6896  141.0214  170.5574 C.ar    1  UNL1        0.1440
     10 F         141.0032  141.2342  172.0086 F       1  UNL1       -0.2042
     11 C         141.6230  141.5408  169.5043 C.ar    1  UNL1        0.0988
     12 C         141.3093  141.3280  168.0530 C.ar    1  UNL1        0.0077
     13 C         142.8701  142.2730  169.9026 C.3     1  UNL1        0.4207
     14 F         144.1172  143.0052  170.3009 F       1  UNL1       -0.1658
     15 F         142.0971  143.5570  169.9627 F       1  UNL1       -0.1658
     16 F         143.6431  140.9890  169.8425 F       1  UNL1       -0.1658
     17 N         139.4833  142.7188  159.7700 N.pl3   1  UNL1       -0.2931
     18 C         140.7196  142.0334  160.2718 C.3     1  UNL1        0.0926
     19 C         140.7192  141.3798  161.6219 C.3     1  UNL1        0.0290
     20 C         139.4825  141.4116  162.4702 C.3     1  UNL1        0.0603
     21 C         138.2462  142.0970  161.9684 C.3     1  UNL1        0.0290
     22 C         138.2466  142.7506  160.6182 C.3     1  UNL1        0.0926
     23 C         140.2087  144.6693  158.2146 C.ar    1  UNL1        0.0628
     24 C         140.2091  145.3229  156.8645 C.ar    1  UNL1        0.1298
     25 N         140.9341  146.6199  156.6593 N.pl3   1  UNL1       -0.3425
     26 N         139.4845  144.6794  155.7195 N.ar    1  UNL1       -0.2094
     27 C         138.7595  143.3824  155.9247 C.ar    1  UNL1        0.2012
     28 N         138.7591  142.7289  157.2748 N.ar    1  UNL1       -0.2089
     29 C         139.4837  143.3723  158.4198 C.ar    1  UNL1        0.1361
     30 H         141.4097  147.0423  157.4107 H       1  UNL1        0.1437
     31 H         140.9344  147.0488  155.7731 H       1  UNL1        0.1437
     32 C         140.1628  145.8392  160.5339 C.2     1  UNL1        0.0002
     33 C         140.9333  145.3128  159.3596 C.2     1  UNL1        0.0056
     34 C         138.5418  138.3553  163.1216 C.3     1  UNL1        0.1245
     35 C         139.4335  137.8851  162.0108 C.3     1  UNL1        0.0970
     36 N         140.8655  137.5396  162.2937 N.3     1  UNL1       -0.2687
     37 C         141.2410  136.9128  163.6037 C.3     1  UNL1        0.0897
     38 C         141.9219  137.8209  161.2667 C.3     1  UNL1        0.0897
@<TRIPOS>BOND
     1    32    33    2
     2    33    23    1
     3    23    24   ar
     4    24    25    1
     5    24    26   ar
     6    26    27   ar
     7    27    28   ar
     8    28    29   ar
     9    29    17    1
    10    17    18    1
    11    18    19    1
    12    19    20    1
    13    20     1    1
    14     1     2   ar
    15     2     3   ar
    16     3     6    1
    17     6     7   ar
    18     7     8   ar
    19     8     9   ar
    20     9    10    1
    21     9    11   ar
    22    11    13    1
    23    13    14    1
    24    13    15    1
    25    13    16    1
    26    11    12   ar
    27     3     4   ar
    28     4     5   ar
    29     5    34    1
    30    34    35    1
    31    35    36    1
    32    36    37    1
    33    36    38    1
    34    20    21    1
    35    21    22    1
    36    29    23   ar
    37    22    17    1
    38     5     1   ar
    39    12     6   ar
    40    25    30    1
    41    25    31    1
@<TRIPOS>MOLECULE
*****
 38 41 0 0 0
SMALL
GASTEIGER

@<TRIPOS>ATOM
      1 C         139.9113  141.3681  163.7313 C.ar    1  UNL1        0.1200
      2 N         140.4037  141.8065  165.0786 N.ar    1  UNL1       -0.2309
      3 C         139.8896  140.8345  166.0988 C.ar    1  UNL1        0.0997
      4 C         139.0795  139.7953  165.3820 C.ar    1  UNL1        0.0961
      5 N         139.0929  140.1251  163.9188 N.ar    1  UNL1       -0.3123
      6 C         140.1415  140.8917  167.5765 C.ar    1  UNL1        0.0193
      7 C         139.2640  140.1203  168.5172 C.ar    1  UNL1        0.0038
      8 C         139.5157  140.1774  169.9947 C.ar    1  UNL1        0.0296
      9 C         140.6451  141.0059  170.5317 C.ar    1  UNL1        0.1440
     10 F         140.8969  141.0631  172.0092 F       1  UNL1       -0.2042
     11 C         141.5226  141.7773  169.5909 C.ar    1  UNL1        0.0988
     12 C         141.2708  141.7201  168.1133 C.ar    1  UNL1        0.0077
     13 C         142.6519  142.6057  170.1278 C.3     1  UNL1        0.4207
     14 F         143.7812  143.4342  170.6647 F       1  UNL1       -0.1658
     15 F         141.7660  143.8161  170.1236 F       1  UNL1       -0.1658
     16 F         143.5379  141.3953  170.1320 F       1  UNL1       -0.1658
     17 N         140.7433  143.4213  159.8144 N.pl3   1  UNL1       -0.2931
     18 C         139.5891  143.8649  160.6634 C.3     1  UNL1        0.0926
     19 C         139.3117  143.1805  161.9690 C.3     1  UNL1        0.0290
     20 C         140.1887  142.0524  162.4257 C.3     1  UNL1        0.0603
     21 C         141.3429  141.6088  161.5766 C.3     1  UNL1        0.0290
     22 C         141.6203  142.2932  160.2710 C.3     1  UNL1        0.0926
     23 C         140.3882  143.5983  157.2468 C.ar    1  UNL1        0.0628
     24 C         140.6656  144.2828  155.9412 C.ar    1  UNL1        0.1298
     25 N         140.0331  143.7754  154.6791 N.pl3   1  UNL1       -0.3425
     26 N         141.5753  145.4746  155.8976 N.ar    1  UNL1       -0.2094
     27 C         142.2077  145.9820  157.1595 C.ar    1  UNL1        0.2012
     28 N         141.9304  145.2975  158.4651 N.ar    1  UNL1       -0.2089
     29 C         141.0207  144.1057  158.5087 C.ar    1  UNL1        0.1361
     30 H         139.4360  142.9932  154.7078 H       1  UNL1        0.1437
     31 H         140.2151  144.2247  153.8222 H       1  UNL1        0.1437
     32 C         138.0081  142.5934  157.5210 C.2     1  UNL1        0.0002
     33 C         139.4785  142.4065  157.2904 C.2     1  UNL1        0.0056
     34 C         138.4081  139.3482  162.8337 C.3     1  UNL1        0.1245
     35 C         138.8842  137.9696  162.4833 C.3     1  UNL1        0.0970
     36 N         140.3539  137.6860  162.3853 N.3     1  UNL1       -0.2687
     37 C         141.0727  137.0465  163.5361 C.3     1  UNL1        0.0897
     38 C         141.1047  138.0419  161.1364 C.3     1  UNL1        0.0897
@<TRIPOS>BOND
     1    32    33    2
     2    33    23    1
     3    23    24   ar
     4    24    25    1
     5    24    26   ar
     6    26    27   ar
     7    27    28   ar
     8    28    29   ar
     9    29    17    1
    10    17    18    1
    11    18    19    1
    12    19    20    1
    13    20     1    1
    14     1     2   ar
    15     2     3   ar
    16     3     6    1
    17     6     7   ar
    18     7     8   ar
    19     8     9   ar
    20     9    10    1
    21     9    11   ar
    22    11    13    1
    23    13    14    1
    24    13    15    1
    25    13    16    1
    26    11    12   ar
    27     3     4   ar
    28     4     5   ar
    29     5    34    1
    30    34    35    1
    31    35    36    1
    32    36    37    1
    33    36    38    1
    34    20    21    1
    35    21    22    1
    36    29    23   ar
    37    22    17    1
    38     5     1   ar
    39    12     6   ar
    40    25    30    1
    41    25    31    1
@<TRIPOS>MOLECULE
*****
 38 41 0 0 0
SMALL
GASTEIGER

@<TRIPOS>ATOM
      1 C         141.5747  140.8484  162.8066 C.ar    1  UNL1        0.1200
      2 N         141.5111  140.2876  164.1964 N.ar    1  UNL1       -0.2309
      3 C         141.1644  141.4072  165.1325 C.ar    1  UNL1        0.0997
      4 C         141.0138  142.6600  164.3213 C.ar    1  UNL1        0.0961
      5 N         141.2674  142.3146  162.8838 N.ar    1  UNL1       -0.3123
      6 C         140.9977  141.2939  166.6189 C.ar    1  UNL1        0.0193
      7 C         139.9936  140.3372  167.1903 C.ar    1  UNL1        0.0038
      8 C         139.8268  140.2239  168.6766 C.ar    1  UNL1        0.0296
      9 C         140.6641  141.0674  169.5918 C.ar    1  UNL1        0.1440
     10 F         140.4974  140.9542  171.0781 F       1  UNL1       -0.2042
     11 C         141.6682  142.0242  169.0204 C.ar    1  UNL1        0.0988
     12 C         141.8350  142.1375  167.5340 C.ar    1  UNL1        0.0077
     13 C         142.5055  142.8677  169.9355 C.3     1  UNL1        0.4207
     14 F         143.3428  143.7113  170.8505 F       1  UNL1       -0.1658
     15 F         141.4036  143.8828  170.0080 F       1  UNL1       -0.1658
     16 F         143.6074  141.8526  169.8629 F       1  UNL1       -0.1658
     17 N         142.5212  138.5379  159.0629 N.pl3   1  UNL1       -0.2931
     18 C         141.1001  138.8926  159.3861 C.3     1  UNL1        0.0926
     19 C         140.7846  139.6628  160.6340 C.3     1  UNL1        0.0290
     20 C         141.8902  140.0782  161.5587 C.3     1  UNL1        0.0603
     21 C         143.3114  139.7234  161.2355 C.3     1  UNL1        0.0290
     22 C         143.6269  138.9532  159.9875 C.3     1  UNL1        0.0926
     23 C         143.1558  138.4972  156.5438 C.ar    1  UNL1        0.0628
     24 C         143.4712  137.7270  155.2959 C.ar    1  UNL1        0.1298
     25 N         143.7903  138.4566  154.0247 N.pl3   1  UNL1       -0.3425
     26 N         143.4677  136.2272  155.3192 N.ar    1  UNL1       -0.2094
     27 C         143.1487  135.4976  156.5904 C.ar    1  UNL1        0.2012
     28 N         142.8332  136.2678  157.8382 N.ar    1  UNL1       -0.2089
     29 C         142.8367  137.7676  157.8149 C.ar    1  UNL1        0.1361
     30 H         143.7926  139.4410  154.0094 H       1  UNL1        0.1437
     31 H         143.9973  137.9511  153.2057 H       1  UNL1        0.1437
     32 C         141.9088  140.7446  156.1636 C.2     1  UNL1        0.0002
     33 C         143.1593  139.9971  156.5205 C.2     1  UNL1        0.0056
     34 C         141.2217  143.2680  161.7267 C.3     1  UNL1        0.1245
     35 C         139.9027  143.7782  161.2269 C.3     1  UNL1        0.0970
     36 N         139.1936  144.8741  161.9660 N.3     1  UNL1       -0.2687
     37 C         139.5991  146.3032  161.7581 C.3     1  UNL1        0.0897
     38 C         138.0791  144.5409  162.9130 C.3     1  UNL1        0.0897
@<TRIPOS>BOND
     1    32    33    2
     2    33    23    1
     3    23    24   ar
     4    24    25    1
     5    24    26   ar
     6    26    27   ar
     7    27    28   ar
     8    28    29   ar
     9    29    17    1
    10    17    18    1
    11    18    19    1
    12    19    20    1
    13    20     1    1
    14     1     2   ar
    15     2     3   ar
    16     3     6    1
    17     6     7   ar
    18     7     8   ar
    19     8     9   ar
    20     9    10    1
    21     9    11   ar
    22    11    13    1
    23    13    14    1
    24    13    15    1
    25    13    16    1
    26    11    12   ar
    27     3     4   ar
    28     4     5   ar
    29     5    34    1
    30    34    35    1
    31    35    36    1
    32    36    37    1
    33    36    38    1
    34    20    21    1
    35    21    22    1
    36    29    23   ar
    37    22    17    1
    38     5     1   ar
    39    12     6   ar
    40    25    30    1
    41    25    31    1
@<TRIPOS>MOLECULE
*****
 38 41 0 0 0
SMALL
GASTEIGER

@<TRIPOS>ATOM
      1 C         142.8509  140.9038  163.3929 C.ar    1  UNL1        0.1200
      2 N         142.4827  141.5041  164.7173 N.ar    1  UNL1       -0.2309
      3 C         142.6869  140.4584  165.7731 C.ar    1  UNL1        0.0997
      4 C         143.1813  139.2116  165.1012 C.ar    1  UNL1        0.0961
      5 N         143.2826  139.4870  163.6302 N.ar    1  UNL1       -0.3123
      6 C         142.4400  140.6293  167.2428 C.ar    1  UNL1        0.0193
      7 C         142.6620  139.4788  168.1793 C.ar    1  UNL1        0.0038
      8 C         142.4152  139.6496  169.6489 C.ar    1  UNL1        0.0296
      9 C         141.9463  140.9711  170.1821 C.ar    1  UNL1        0.1440
     10 F         141.6994  141.1419  171.6517 F       1  UNL1       -0.2042
     11 C         141.7243  142.1215  169.2455 C.ar    1  UNL1        0.0988
     12 C         141.9712  141.9506  167.7759 C.ar    1  UNL1        0.0077
     13 C         141.2554  143.4428  169.7786 C.3     1  UNL1        0.4207
     14 F         140.7866  144.7642  170.3117 F       1  UNL1       -0.1658
     15 F         139.9171  143.2269  169.1367 F       1  UNL1       -0.1658
     16 F         142.5938  143.6588  170.4205 F       1  UNL1       -0.1658
     17 N         142.6887  142.9874  159.4077 N.pl3   1  UNL1       -0.2931
     18 C         143.9933  142.8661  160.1381 C.3     1  UNL1        0.0926
     19 C         144.0473  142.1716  161.4665 C.3     1  UNL1        0.0290
     20 C         142.7968  141.5983  162.0645 C.3     1  UNL1        0.0603
     21 C         141.4923  141.7195  161.3341 C.3     1  UNL1        0.0290
     22 C         141.4383  142.4141  160.0057 C.3     1  UNL1        0.0926
     23 C         142.9939  142.9366  156.8281 C.ar    1  UNL1        0.0628
     24 C         142.9399  143.6312  155.4997 C.ar    1  UNL1        0.1298
     25 N         143.2991  142.8859  154.2485 N.pl3   1  UNL1       -0.3425
     26 N         142.5267  145.0711  155.4225 N.ar    1  UNL1       -0.2094
     27 C         142.1675  145.8164  156.6736 C.ar    1  UNL1        0.2012
     28 N         142.2215  145.1218  158.0020 N.ar    1  UNL1       -0.2089
     29 C         142.6347  143.6820  158.0792 C.ar    1  UNL1        0.1361
     30 H         143.5703  141.9408  154.2991 H       1  UNL1        0.1437
     31 H         143.2637  143.3418  153.3766 H       1  UNL1        0.1437
     32 C         144.8623  141.1353  156.9463 C.2     1  UNL1        0.0002
     33 C         143.4072  141.4967  156.9053 C.2     1  UNL1        0.0056
     34 C         143.7361  138.5159  162.5807 C.3     1  UNL1        0.1245
     35 C         142.7263  137.8125  161.7232 C.3     1  UNL1        0.0970
     36 N         141.3035  137.6945  162.1835 N.3     1  UNL1       -0.2687
     37 C         140.9867  136.9838  163.4659 C.3     1  UNL1        0.0897
     38 C         140.1977  138.2871  161.3614 C.3     1  UNL1        0.0897
@<TRIPOS>BOND
     1    32    33    2
     2    33    23    1
     3    23    24   ar
     4    24    25    1
     5    24    26   ar
     6    26    27   ar
     7    27    28   ar
     8    28    29   ar
     9    29    17    1
    10    17    18    1
    11    18    19    1
    12    19    20    1
    13    20     1    1
    14     1     2   ar
    15     2     3   ar
    16     3     6    1
    17     6     7   ar
    18     7     8   ar
    19     8     9   ar
    20     9    10    1
    21     9    11   ar
    22    11    13    1
    23    13    14    1
    24    13    15    1
    25    13    16    1
    26    11    12   ar
    27     3     4   ar
    28     4     5   ar
    29     5    34    1
    30    34    35    1
    31    35    36    1
    32    36    37    1
    33    36    38    1
    34    20    21    1
    35    21    22    1
    36    29    23   ar
    37    22    17    1
    38     5     1   ar
    39    12     6   ar
    40    25    30    1
    41    25    31    1
@<TRIPOS>MOLECULE
*****
 38 41 0 0 0
SMALL
GASTEIGER

@<TRIPOS>ATOM
      1 C         141.1714  140.9578  163.4809 C.ar    1  UNL1        0.1200
      2 N         141.1543  141.4963  164.8808 N.ar    1  UNL1       -0.2309
      3 C         141.4993  140.3734  165.8135 C.ar    1  UNL1        0.0997
      4 C         141.7297  139.1409  164.9901 C.ar    1  UNL1        0.0961
      5 N         141.5270  139.5021  163.5485 N.ar    1  UNL1       -0.3123
      6 C         141.5969  140.4666  167.3075 C.ar    1  UNL1        0.0193
      7 C         142.4922  139.5279  168.0606 C.ar    1  UNL1        0.0038
      8 C         142.5898  139.6210  169.5545 C.ar    1  UNL1        0.0296
      9 C         141.7921  140.6530  170.2954 C.ar    1  UNL1        0.1440
     10 F         141.8897  140.7462  171.7892 F       1  UNL1       -0.2042
     11 C         140.8968  141.5918  169.5422 C.ar    1  UNL1        0.0988
     12 C         140.7993  141.4986  168.0483 C.ar    1  UNL1        0.0077
     13 C         140.0992  142.6237  170.2830 C.3     1  UNL1        0.4207
     14 F         139.3015  143.6557  171.0237 F       1  UNL1       -0.1658
     15 F         141.2772  143.5519  170.2585 F       1  UNL1       -0.1658
     16 F         138.9211  141.6955  170.3075 F       1  UNL1       -0.1658
     17 N         140.3076  143.2985  159.7359 N.pl3   1  UNL1       -0.2931
     18 C         141.6856  142.7597  159.9825 C.3     1  UNL1        0.0926
     19 C         141.9735  141.9795  161.2308 C.3     1  UNL1        0.0290
     20 C         140.8834  141.7380  162.2326 C.3     1  UNL1        0.0603
     21 C         139.5054  142.2768  161.9860 C.3     1  UNL1        0.0290
     22 C         139.2175  143.0571  160.7376 C.3     1  UNL1        0.0926
     23 C         139.4382  143.3889  157.2892 C.ar    1  UNL1        0.0628
     24 C         139.1503  144.1692  156.0409 C.ar    1  UNL1        0.1298
     25 N         138.5688  143.4793  154.8426 N.pl3   1  UNL1       -0.3425
     26 N         139.4439  145.6393  155.9909 N.ar    1  UNL1       -0.2094
     27 C         140.0253  146.3292  157.1892 C.ar    1  UNL1        0.2012
     28 N         140.3132  145.5489  158.4375 N.ar    1  UNL1       -0.2089
     29 C         140.0196  144.0788  158.4875 C.ar    1  UNL1        0.1361
     30 H         138.3761  142.5144  154.8754 H       1  UNL1        0.1437
     31 H         138.3799  143.9914  154.0233 H       1  UNL1        0.1437
     32 C         137.7478  141.4415  157.6058 C.2     1  UNL1        0.0002
     33 C         139.1446  141.9188  157.3392 C.2     1  UNL1        0.0056
     34 C         141.6570  138.5711  162.3796 C.3     1  UNL1        0.1245
     35 C         140.4552  137.8294  161.8741 C.3     1  UNL1        0.0970
     36 N         139.2831  138.5866  161.3241 N.3     1  UNL1       -0.2687
     37 C         138.0744  138.8231  162.1803 C.3     1  UNL1        0.0897
     38 C         139.3196  139.1074  159.9179 C.3     1  UNL1        0.0897
@<TRIPOS>BOND
     1    32    33    2
     2    33    23    1
     3    23    24   ar
     4    24    25    1
     5    24    26   ar
     6    26    27   ar
     7    27    28   ar
     8    28    29   ar
     9    29    17    1
    10    17    18    1
    11    18    19    1
    12    19    20    1
    13    20     1    1
    14     1     2   ar
    15     2     3   ar
    16     3     6    1
    17     6     7   ar
    18     7     8   ar
    19     8     9   ar
    20     9    10    1
    21     9    11   ar
    22    11    13    1
    23    13    14    1
    24    13    15    1
    25    13    16    1
    26    11    12   ar
    27     3     4   ar
    28     4     5   ar
    29     5    34    1
    30    34    35    1
    31    35    36    1
    32    36    37    1
    33    36    38    1
    34    20    21    1
    35    21    22    1
    36    29    23   ar
    37    22    17    1
    38     5     1   ar
    39    12     6   ar
    40    25    30    1
    41    25    31    1
