@<TRIPOS>MOLECULE
*****
 40 44 0 0 0
SMALL
GASTEIGER

@<TRIPOS>ATOM
      1 C         140.9569  146.1926  157.0526 C.3     1  UNL1        0.1035
      2 C         139.9596  145.7359  158.0758 C.3     1  UNL1        0.0933
      3 N         141.0779  145.4149  159.0225 N.3     1  UNL1       -0.2711
      4 C         142.0752  145.8715  157.9993 C.3     1  UNL1        0.0933
      5 C         141.1636  144.8650  160.4155 C.3     1  UNL1        0.0576
      6 C         141.9603  143.6227  160.6837 C.3     1  UNL1        0.0163
      7 C         142.0459  143.0729  162.0767 C.3     1  UNL1        0.0057
      8 C         141.3348  143.7653  163.2014 C.3     1  UNL1        0.0224
      9 C         140.5381  145.0076  162.9331 C.3     1  UNL1        0.0057
     10 C         140.4524  145.5574  161.5402 C.3     1  UNL1        0.0163
     11 C         141.4204  143.2154  164.5943 C.ar    1  UNL1       -0.0224
     12 C         140.2037  143.2021  165.4715 C.ar    1  UNL1       -0.0030
     13 C         140.2894  142.6522  166.8645 C.ar    1  UNL1        0.0142
     14 C         141.5917  142.1156  167.3802 C.ar    1  UNL1        0.0478
     15 C         142.8084  142.1289  166.5030 C.ar    1  UNL1        0.0142
     16 C         142.7228  142.6788  165.1101 C.ar    1  UNL1       -0.0030
     17 N         141.6774  141.5657  168.7732 N.pl3   1  UNL1       -0.3075
     18 C         142.8657  140.8790  169.3785 C.3     1  UNL1        0.0908
     19 C         142.5125  140.4949  170.7848 C.3     1  UNL1        0.0232
     20 C         141.1059  140.9441  171.0486 C.3     1  UNL1        0.0232
     21 C         140.5898  141.6060  169.8053 C.3     1  UNL1        0.0908
     22 O         138.8595  148.2257  156.3689 O.2     1  UNL1       -0.2733
     23 C         139.8225  147.7590  155.3178 C.2     1  UNL1        0.2426
     24 N         140.8712  146.7425  155.6596 N.am    1  UNL1       -0.3018
     25 H         141.5032  146.4362  154.9698 H       1  UNL1        0.1495
     26 C         139.7369  148.3088  153.9249 C.3     1  UNL1        0.1759
     27 N         140.5677  149.4952  153.5344 N.am    1  UNL1       -0.2931
     28 C         140.1069  150.8801  153.8805 C.2     1  UNL1        0.2462
     29 O         138.8154  151.0786  154.6170 O.2     1  UNL1       -0.2701
     30 H         141.4154  149.3649  153.0510 H       1  UNL1        0.1502
     31 C         140.9377  152.0664  153.4900 C.ar    1  UNL1        0.0533
     32 C         140.5006  152.9484  152.3583 C.ar    1  UNL1        0.0045
     33 C         141.3313  154.1347  151.9679 C.ar    1  UNL1        0.0001
     34 C         142.5993  154.4390  152.7093 C.ar    1  UNL1        0.0039
     35 C         143.0365  153.5570  153.8410 C.ar    1  UNL1        0.0716
     36 C         142.2057  152.3707  154.2314 C.ar    1  UNL1        0.0084
     37 C         144.3045  153.8613  154.5824 C.3     1  UNL1        0.4186
     38 F         145.5725  154.1656  155.3238 F       1  UNL1       -0.1659
     39 F         144.1213  155.3223  154.2960 F       1  UNL1       -0.1659
     40 F         144.4877  152.4003  154.8688 F       1  UNL1       -0.1659
@<TRIPOS>BOND
     1    22    23    2
     2    23    26    1
     3    26    27    1
     4    27    28   am
     5    28    29    2
     6    28    31    1
     7    31    32   ar
     8    32    33   ar
     9    33    34   ar
    10    34    35   ar
    11    35    37    1
    12    37    38    1
    13    37    39    1
    14    37    40    1
    15    35    36   ar
    16    23    24   am
    17    24     1    1
    18     1     2    1
    19     2     3    1
    20     5     3    1
    21     5     6    1
    22     6     7    1
    23     7     8    1
    24     8    11    1
    25    11    12   ar
    26    12    13   ar
    27    13    14   ar
    28    14    17    1
    29    17    18    1
    30    18    19    1
    31    19    20    1
    32    20    21    1
    33    14    15   ar
    34    15    16   ar
    35     8     9    1
    36     9    10    1
    37     3     4    1
    38    36    31   ar
    39     4     1    1
    40    10     5    1
    41    16    11   ar
    42    21    17    1
    43    27    30    1
    44    24    25    1
@<TRIPOS>MOLECULE
*****
 40 44 0 0 0
SMALL
GASTEIGER

@<TRIPOS>ATOM
      1 C         140.7203  139.5160  157.9342 C.3     1  UNL1        0.1035
      2 C         140.4444  138.0716  158.2303 C.3     1  UNL1        0.0933
      3 N         141.4240  137.6669  157.1690 N.3     1  UNL1       -0.2711
      4 C         141.6999  139.1112  156.8728 C.3     1  UNL1        0.0933
      5 C         141.9216  136.3594  156.6279 C.3     1  UNL1        0.0576
      6 C         143.1272  135.7061  157.2361 C.3     1  UNL1        0.0163
      7 C         143.6248  134.3985  156.6949 C.3     1  UNL1        0.0057
      8 C         142.9168  133.7443  155.5457 C.3     1  UNL1        0.0224
      9 C         141.7113  134.3976  154.9375 C.3     1  UNL1        0.0057
     10 C         141.2137  135.7051  155.4786 C.3     1  UNL1        0.0163
     11 C         143.4145  132.4368  155.0046 C.ar    1  UNL1       -0.0224
     12 C         144.3515  131.5957  155.8197 C.ar    1  UNL1       -0.0030
     13 C         144.8491  130.2881  155.2786 C.ar    1  UNL1        0.0142
     14 C         144.4097  129.8218  153.9224 C.ar    1  UNL1        0.0478
     15 C         143.4726  130.6629  153.1072 C.ar    1  UNL1        0.0142
     16 C         142.9750  131.9704  153.6483 C.ar    1  UNL1       -0.0030
     17 N         144.9073  128.5142  153.3812 N.pl3   1  UNL1       -0.3075
     18 C         145.9975  127.6721  153.9746 C.3     1  UNL1        0.0908
     19 C         146.1660  126.4567  153.1118 C.3     1  UNL1        0.0232
     20 C         145.1799  126.5477  151.9852 C.3     1  UNL1        0.0232
     21 C         144.4019  127.8194  152.1518 C.3     1  UNL1        0.0908
     22 O         137.8393  140.2807  157.5951 O.2     1  UNL1       -0.2733
     23 C         138.7822  141.2059  158.3057 C.2     1  UNL1        0.2426
     24 N         140.2226  140.8235  158.4753 N.am    1  UNL1       -0.3018
     25 H         140.8415  141.4307  158.9418 H       1  UNL1        0.1495
     26 C         138.2846  142.5133  158.8469 C.3     1  UNL1        0.1759
     27 N         138.2117  142.7326  160.3290 N.am    1  UNL1       -0.2931
     28 C         139.4370  143.1509  161.0864 C.2     1  UNL1        0.2462
     29 O         140.7352  143.3498  160.3618 O.2     1  UNL1       -0.2701
     30 H         137.3597  142.6021  160.8047 H       1  UNL1        0.1502
     31 C         139.3641  143.3702  162.5686 C.ar    1  UNL1        0.0533
     32 C         139.0628  144.7359  163.1107 C.ar    1  UNL1        0.0045
     33 C         138.9899  144.9552  164.5928 C.ar    1  UNL1        0.0001
     34 C         139.2185  143.8087  165.5327 C.ar    1  UNL1        0.0039
     35 C         139.5198  142.4430  164.9905 C.ar    1  UNL1        0.0716
     36 C         139.5927  142.2238  163.5085 C.ar    1  UNL1        0.0084
     37 C         139.7483  141.2966  165.9305 C.3     1  UNL1        0.4186
     38 F         139.9769  140.1501  166.8704 F       1  UNL1       -0.1659
     39 F         139.0586  140.3725  164.9711 F       1  UNL1       -0.1659
     40 F         140.4381  142.2206  166.8898 F       1  UNL1       -0.1659
@<TRIPOS>BOND
     1    22    23    2
     2    23    26    1
     3    26    27    1
     4    27    28   am
     5    28    29    2
     6    28    31    1
     7    31    32   ar
     8    32    33   ar
     9    33    34   ar
    10    34    35   ar
    11    35    37    1
    12    37    38    1
    13    37    39    1
    14    37    40    1
    15    35    36   ar
    16    23    24   am
    17    24     1    1
    18     1     2    1
    19     2     3    1
    20     5     3    1
    21     5     6    1
    22     6     7    1
    23     7     8    1
    24     8    11    1
    25    11    12   ar
    26    12    13   ar
    27    13    14   ar
    28    14    17    1
    29    17    18    1
    30    18    19    1
    31    19    20    1
    32    20    21    1
    33    14    15   ar
    34    15    16   ar
    35     8     9    1
    36     9    10    1
    37     3     4    1
    38    36    31   ar
    39     4     1    1
    40    10     5    1
    41    16    11   ar
    42    21    17    1
    43    27    30    1
    44    24    25    1
@<TRIPOS>MOLECULE
*****
 40 44 0 0 0
SMALL
GASTEIGER

@<TRIPOS>ATOM
      1 C         140.3047  142.3530  157.1197 C.3     1  UNL1        0.1035
      2 C         139.8490  142.9802  155.8356 C.3     1  UNL1        0.0933
      3 N         140.0267  144.3424  156.4379 N.3     1  UNL1       -0.2711
      4 C         140.4823  143.7152  157.7221 C.3     1  UNL1        0.0933
      5 C         139.8300  145.7492  155.9559 C.3     1  UNL1        0.0576
      6 C         140.3615  146.1640  154.6159 C.3     1  UNL1        0.0163
      7 C         140.1649  147.5708  154.1338 C.3     1  UNL1        0.0057
      8 C         139.4368  148.5627  154.9917 C.3     1  UNL1        0.0224
      9 C         138.9053  148.1478  156.3317 C.3     1  UNL1        0.0057
     10 C         139.1019  146.7411  156.8137 C.3     1  UNL1        0.0163
     11 C         139.2401  149.9694  154.5096 C.ar    1  UNL1       -0.0224
     12 C         138.6143  150.9910  155.4122 C.ar    1  UNL1       -0.0030
     13 C         138.4177  152.3977  154.9301 C.ar    1  UNL1        0.0142
     14 C         138.8469  152.7829  153.5454 C.ar    1  UNL1        0.0478
     15 C         139.4728  151.7613  152.6428 C.ar    1  UNL1        0.0142
     16 C         139.6694  150.3546  153.1249 C.ar    1  UNL1       -0.0030
     17 N         138.6503  154.1897  153.0632 N.pl3   1  UNL1       -0.3075
     18 C         137.4623  155.0606  153.3459 C.3     1  UNL1        0.0908
     19 C         137.6850  156.3817  152.6711 C.3     1  UNL1        0.0232
     20 C         139.0107  156.3271  151.9715 C.3     1  UNL1        0.0232
     21 C         139.6073  154.9723  152.2139 C.3     1  UNL1        0.0908
     22 O         137.9308  140.6779  157.8673 O.2     1  UNL1       -0.2733
     23 C         139.3144  140.1087  157.9756 C.2     1  UNL1        0.2426
     24 N         140.5013  140.9462  157.6018 N.am    1  UNL1       -0.3018
     25 H         141.4094  140.5726  157.6729 H       1  UNL1        0.1495
     26 C         139.5111  138.7020  158.4576 C.3     1  UNL1        0.1759
     27 N         140.0241  138.4491  159.8443 N.am    1  UNL1       -0.2931
     28 C         139.0930  138.5404  161.0167 C.2     1  UNL1        0.2462
     29 O         137.6488  138.8845  160.8025 O.2     1  UNL1       -0.2701
     30 H         140.9720  138.2233  159.9849 H       1  UNL1        0.1502
     31 C         139.6060  138.2875  162.4035 C.ar    1  UNL1        0.0533
     32 C         141.0089  137.7968  162.6063 C.ar    1  UNL1        0.0045
     33 C         141.5219  137.5440  163.9929 C.ar    1  UNL1        0.0001
     34 C         140.6320  137.7819  165.1768 C.ar    1  UNL1        0.0039
     35 C         139.2291  138.2725  164.9740 C.ar    1  UNL1        0.0716
     36 C         138.7162  138.5254  163.5873 C.ar    1  UNL1        0.0084
     37 C         138.3392  138.5104  166.1578 C.3     1  UNL1        0.4186
     38 F         137.4494  138.7482  167.3417 F       1  UNL1       -0.1659
     39 F         137.9904  137.0518  166.1887 F       1  UNL1       -0.1659
     40 F         138.6881  139.9689  166.1270 F       1  UNL1       -0.1659
@<TRIPOS>BOND
     1    22    23    2
     2    23    26    1
     3    26    27    1
     4    27    28   am
     5    28    29    2
     6    28    31    1
     7    31    32   ar
     8    32    33   ar
     9    33    34   ar
    10    34    35   ar
    11    35    37    1
    12    37    38    1
    13    37    39    1
    14    37    40    1
    15    35    36   ar
    16    23    24   am
    17    24     1    1
    18     1     2    1
    19     2     3    1
    20     5     3    1
    21     5     6    1
    22     6     7    1
    23     7     8    1
    24     8    11    1
    25    11    12   ar
    26    12    13   ar
    27    13    14   ar
    28    14    17    1
    29    17    18    1
    30    18    19    1
    31    19    20    1
    32    20    21    1
    33    14    15   ar
    34    15    16   ar
    35     8     9    1
    36     9    10    1
    37     3     4    1
    38    36    31   ar
    39     4     1    1
    40    10     5    1
    41    16    11   ar
    42    21    17    1
    43    27    30    1
    44    24    25    1
@<TRIPOS>MOLECULE
*****
 40 44 0 0 0
SMALL
GASTEIGER

@<TRIPOS>ATOM
      1 C         140.2577  140.5779  157.1944 C.3     1  UNL1        0.1035
      2 C         140.0243  139.1864  157.7036 C.3     1  UNL1        0.0933
      3 N         141.0398  138.6608  156.7328 N.3     1  UNL1       -0.2711
      4 C         141.2733  140.0523  156.2236 C.3     1  UNL1        0.0933
      5 C         141.5929  137.3052  156.4064 C.3     1  UNL1        0.0576
      6 C         142.8633  136.8379  157.0527 C.3     1  UNL1        0.0163
      7 C         143.4163  135.4823  156.7263 C.3     1  UNL1        0.0057
      8 C         142.6989  134.5940  155.7535 C.3     1  UNL1        0.0224
      9 C         141.4285  135.0613  155.1072 C.3     1  UNL1        0.0057
     10 C         140.8755  136.4168  155.4336 C.3     1  UNL1        0.0163
     11 C         143.2519  133.2385  155.4271 C.ar    1  UNL1       -0.0224
     12 C         142.7323  132.4823  154.2404 C.ar    1  UNL1       -0.0030
     13 C         143.2854  131.1267  153.9140 C.ar    1  UNL1        0.0142
     14 C         144.3580  130.5273  154.7743 C.ar    1  UNL1        0.0478
     15 C         144.8776  131.2834  155.9610 C.ar    1  UNL1        0.0142
     16 C         144.3246  132.6390  156.2874 C.ar    1  UNL1       -0.0030
     17 N         144.9111  129.1717  154.4479 N.pl3   1  UNL1       -0.3075
     18 C         145.2391  128.0919  155.4361 C.3     1  UNL1        0.0908
     19 C         145.7640  126.9108  154.6749 C.3     1  UNL1        0.0232
     20 C         145.7604  127.2606  153.2163 C.3     1  UNL1        0.0232
     21 C         145.2333  128.6580  153.0760 C.3     1  UNL1        0.0908
     22 O         141.8922  142.5193  158.7943 O.2     1  UNL1       -0.2733
     23 C         140.5219  142.9042  158.3208 C.2     1  UNL1        0.2426
     24 N         139.7047  141.9335  157.5209 N.am    1  UNL1       -0.3018
     25 H         138.8053  142.1861  157.2102 H       1  UNL1        0.1495
     26 C         139.9688  144.2597  158.6472 C.3     1  UNL1        0.1759
     27 N         140.1932  145.4074  157.7078 N.am    1  UNL1       -0.2931
     28 C         139.4599  145.4610  156.4004 C.2     1  UNL1        0.2462
     29 O         138.5022  144.3668  156.0323 O.2     1  UNL1       -0.2701
     30 H         140.8218  146.1256  157.9494 H       1  UNL1        0.1502
     31 C         139.6844  146.6087  155.4610 C.ar    1  UNL1        0.0533
     32 C         140.4887  146.4085  154.2109 C.ar    1  UNL1        0.0045
     33 C         140.7131  147.5562  153.2716 C.ar    1  UNL1        0.0001
     34 C         140.1332  148.9042  153.5825 C.ar    1  UNL1        0.0039
     35 C         139.3289  149.1044  154.8326 C.ar    1  UNL1        0.0716
     36 C         139.1045  147.9567  155.7719 C.ar    1  UNL1        0.0084
     37 C         138.7489  150.4524  155.1434 C.3     1  UNL1        0.4186
     38 F         138.1690  151.8004  155.4543 F       1  UNL1       -0.1659
     39 F         139.5947  151.0646  154.0664 F       1  UNL1       -0.1659
     40 F         137.9032  149.8402  156.2204 F       1  UNL1       -0.1659
@<TRIPOS>BOND
     1    22    23    2
     2    23    26    1
     3    26    27    1
     4    27    28   am
     5    28    29    2
     6    28    31    1
     7    31    32   ar
     8    32    33   ar
     9    33    34   ar
    10    34    35   ar
    11    35    37    1
    12    37    38    1
    13    37    39    1
    14    37    40    1
    15    35    36   ar
    16    23    24   am
    17    24     1    1
    18     1     2    1
    19     2     3    1
    20     5     3    1
    21     5     6    1
    22     6     7    1
    23     7     8    1
    24     8    11    1
    25    11    12   ar
    26    12    13   ar
    27    13    14   ar
    28    14    17    1
    29    17    18    1
    30    18    19    1
    31    19    20    1
    32    20    21    1
    33    14    15   ar
    34    15    16   ar
    35     8     9    1
    36     9    10    1
    37     3     4    1
    38    36    31   ar
    39     4     1    1
    40    10     5    1
    41    16    11   ar
    42    21    17    1
    43    27    30    1
    44    24    25    1
@<TRIPOS>MOLECULE
*****
 40 44 0 0 0
SMALL
GASTEIGER

@<TRIPOS>ATOM
      1 C         143.0036  136.9162  156.6394 C.3     1  UNL1        0.1035
      2 C         142.9889  136.3916  158.0446 C.3     1  UNL1        0.0933
      3 N         142.8792  137.7935  158.5668 N.3     1  UNL1       -0.2711
      4 C         142.8939  138.3181  157.1616 C.3     1  UNL1        0.0933
      5 C         142.7913  138.4138  159.9296 C.3     1  UNL1        0.0576
      6 C         141.4566  138.5788  160.5939 C.3     1  UNL1        0.0163
      7 C         141.3687  139.1991  161.9569 C.3     1  UNL1        0.0057
      8 C         142.6155  139.6545  162.6554 C.3     1  UNL1        0.0224
      9 C         143.9503  139.4896  161.9911 C.3     1  UNL1        0.0057
     10 C         144.0382  138.8693  160.6283 C.3     1  UNL1        0.0163
     11 C         142.5276  140.2748  164.0183 C.ar    1  UNL1       -0.0224
     12 C         142.7922  141.7409  164.1935 C.ar    1  UNL1       -0.0030
     13 C         142.7042  142.3612  165.5565 C.ar    1  UNL1        0.0142
     14 C         142.3518  141.5155  166.7441 C.ar    1  UNL1        0.0478
     15 C         142.0872  140.0494  166.5688 C.ar    1  UNL1        0.0142
     16 C         142.1751  139.4291  165.2060 C.ar    1  UNL1       -0.0030
     17 N         142.2638  142.1358  168.1070 N.pl3   1  UNL1       -0.3075
     18 C         143.3885  142.2654  169.0910 C.3     1  UNL1        0.0908
     19 C         142.8555  142.9451  170.3173 C.3     1  UNL1        0.0232
     20 C         141.4014  143.2356  170.0913 C.3     1  UNL1        0.0232
     21 C         141.0357  142.7354  168.7251 C.3     1  UNL1        0.0908
     22 O         140.4994  136.1536  155.1739 O.2     1  UNL1       -0.2733
     23 C         141.8394  135.9146  154.5438 C.2     1  UNL1        0.2426
     24 N         143.0915  136.2958  155.2764 N.am    1  UNL1       -0.3018
     25 H         143.9710  136.1389  154.8628 H       1  UNL1        0.1495
     26 C         141.9274  135.2942  153.1809 C.3     1  UNL1        0.1759
     27 N         141.7092  133.8197  153.0126 N.am    1  UNL1       -0.2931
     28 C         142.4418  132.8481  153.8897 C.2     1  UNL1        0.2462
     29 O         143.3926  133.3511  154.9352 O.2     1  UNL1       -0.2701
     30 H         141.0852  133.4896  152.3263 H       1  UNL1        0.1502
     31 C         142.2237  131.3736  153.7213 C.ar    1  UNL1        0.0533
     32 C         143.1025  130.5864  152.7951 C.ar    1  UNL1        0.0045
     33 C         142.8843  129.1120  152.6267 C.ar    1  UNL1        0.0001
     34 C         141.7873  128.4247  153.3846 C.ar    1  UNL1        0.0039
     35 C         140.9085  129.2120  154.3108 C.ar    1  UNL1        0.0716
     36 C         141.1267  130.6864  154.4792 C.ar    1  UNL1        0.0084
     37 C         139.8116  128.5248  155.0687 C.3     1  UNL1        0.4186
     38 F         138.7146  127.8375  155.8266 F       1  UNL1       -0.1659
     39 F         140.4438  127.1958  154.7788 F       1  UNL1       -0.1659
     40 F         139.1793  129.8537  155.3587 F       1  UNL1       -0.1659
@<TRIPOS>BOND
     1    22    23    2
     2    23    26    1
     3    26    27    1
     4    27    28   am
     5    28    29    2
     6    28    31    1
     7    31    32   ar
     8    32    33   ar
     9    33    34   ar
    10    34    35   ar
    11    35    37    1
    12    37    38    1
    13    37    39    1
    14    37    40    1
    15    35    36   ar
    16    23    24   am
    17    24     1    1
    18     1     2    1
    19     2     3    1
    20     5     3    1
    21     5     6    1
    22     6     7    1
    23     7     8    1
    24     8    11    1
    25    11    12   ar
    26    12    13   ar
    27    13    14   ar
    28    14    17    1
    29    17    18    1
    30    18    19    1
    31    19    20    1
    32    20    21    1
    33    14    15   ar
    34    15    16   ar
    35     8     9    1
    36     9    10    1
    37     3     4    1
    38    36    31   ar
    39     4     1    1
    40    10     5    1
    41    16    11   ar
    42    21    17    1
    43    27    30    1
    44    24    25    1
@<TRIPOS>MOLECULE
*****
 40 44 0 0 0
SMALL
GASTEIGER

@<TRIPOS>ATOM
      1 C         140.7380  139.7361  157.6157 C.3     1  UNL1        0.1035
      2 C         140.3049  138.7660  156.5568 C.3     1  UNL1        0.0933
      3 N         141.4341  137.8526  156.9318 N.3     1  UNL1       -0.2711
      4 C         141.8671  138.8227  157.9907 C.3     1  UNL1        0.0933
      5 C         141.9263  136.5207  156.4482 C.3     1  UNL1        0.0576
      6 C         143.2301  135.9754  156.9510 C.3     1  UNL1        0.0163
      7 C         143.7223  134.6434  156.4673 C.3     1  UNL1        0.0057
      8 C         142.9108  133.8570  155.4810 C.3     1  UNL1        0.0224
      9 C         141.6070  134.4024  154.9782 C.3     1  UNL1        0.0057
     10 C         141.1148  135.7342  155.4618 C.3     1  UNL1        0.0163
     11 C         143.4030  132.5252  154.9974 C.ar    1  UNL1       -0.0224
     12 C         142.9672  132.0052  153.6596 C.ar    1  UNL1       -0.0030
     13 C         143.4595  130.6733  153.1761 C.ar    1  UNL1        0.0142
     14 C         144.3875  129.8615  154.0303 C.ar    1  UNL1        0.0478
     15 C         144.8233  130.3815  155.3681 C.ar    1  UNL1        0.0142
     16 C         144.3311  131.7133  155.8516 C.ar    1  UNL1       -0.0030
     17 N         144.8798  128.5296  153.5467 N.pl3   1  UNL1       -0.3075
     18 C         144.3631  127.7779  152.3560 C.3     1  UNL1        0.0908
     19 C         145.1392  126.4993  152.2424 C.3     1  UNL1        0.0232
     20 C         146.1356  126.4608  153.3629 C.3     1  UNL1        0.0232
     21 C         145.9753  127.7157  154.1691 C.3     1  UNL1        0.0908
     22 O         140.8700  142.1294  155.8116 O.2     1  UNL1       -0.2733
     23 C         140.3117  142.2646  157.1972 C.2     1  UNL1        0.2426
     24 N         140.2457  141.0680  158.0993 N.am    1  UNL1       -0.3018
     25 H         139.8792  141.1568  159.0087 H       1  UNL1        0.1495
     26 C         139.8194  143.5964  157.6808 C.3     1  UNL1        0.1759
     27 N         139.7579  143.8843  159.1517 N.am    1  UNL1       -0.2931
     28 C         141.0241  144.0896  159.9293 C.2     1  UNL1        0.2462
     29 O         142.3517  144.0069  159.2361 O.2     1  UNL1       -0.2701
     30 H         138.8866  143.9386  159.6067 H       1  UNL1        0.1502
     31 C         140.9626  144.3775  161.4002 C.ar    1  UNL1        0.0533
     32 C         142.2088  144.7602  162.1422 C.ar    1  UNL1        0.0045
     33 C         142.1472  145.0481  163.6130 C.ar    1  UNL1        0.0001
     34 C         140.8396  144.9533  164.3417 C.ar    1  UNL1        0.0039
     35 C         139.5934  144.5707  163.5997 C.ar    1  UNL1        0.0716
     36 C         139.6550  144.2828  162.1289 C.ar    1  UNL1        0.0084
     37 C         138.2858  144.4760  164.3285 C.3     1  UNL1        0.4186
     38 F         136.9781  144.3812  165.0572 F       1  UNL1       -0.1659
     39 F         137.6269  143.9684  163.0802 F       1  UNL1       -0.1659
     40 F         138.9447  144.9835  165.5767 F       1  UNL1       -0.1659
@<TRIPOS>BOND
     1    22    23    2
     2    23    26    1
     3    26    27    1
     4    27    28   am
     5    28    29    2
     6    28    31    1
     7    31    32   ar
     8    32    33   ar
     9    33    34   ar
    10    34    35   ar
    11    35    37    1
    12    37    38    1
    13    37    39    1
    14    37    40    1
    15    35    36   ar
    16    23    24   am
    17    24     1    1
    18     1     2    1
    19     2     3    1
    20     5     3    1
    21     5     6    1
    22     6     7    1
    23     7     8    1
    24     8    11    1
    25    11    12   ar
    26    12    13   ar
    27    13    14   ar
    28    14    17    1
    29    17    18    1
    30    18    19    1
    31    19    20    1
    32    20    21    1
    33    14    15   ar
    34    15    16   ar
    35     8     9    1
    36     9    10    1
    37     3     4    1
    38    36    31   ar
    39     4     1    1
    40    10     5    1
    41    16    11   ar
    42    21    17    1
    43    27    30    1
    44    24    25    1
@<TRIPOS>MOLECULE
*****
 40 44 0 0 0
SMALL
GASTEIGER

@<TRIPOS>ATOM
      1 C         140.3745  142.3401  157.0000 C.3     1  UNL1        0.1035
      2 C         140.0222  142.9690  155.6845 C.3     1  UNL1        0.0933
      3 N         140.0996  144.3285  156.3137 N.3     1  UNL1       -0.2711
      4 C         140.4519  143.6996  157.6292 C.3     1  UNL1        0.0933
      5 C         139.9052  145.7344  155.8284 C.3     1  UNL1        0.0576
      6 C         140.5114  146.1692  154.5271 C.3     1  UNL1        0.0163
      7 C         140.3170  147.5752  154.0418 C.3     1  UNL1        0.0057
      8 C         139.5165  148.5464  154.8579 C.3     1  UNL1        0.0224
      9 C         138.9103  148.1115  156.1593 C.3     1  UNL1        0.0057
     10 C         139.1047  146.7056  156.6445 C.3     1  UNL1        0.0163
     11 C         139.3221  149.9523  154.3727 C.ar    1  UNL1       -0.0224
     12 C         138.8202  151.0076  155.3130 C.ar    1  UNL1       -0.0030
     13 C         138.6258  152.4136  154.8277 C.ar    1  UNL1        0.0142
     14 C         138.9333  152.7642  153.4021 C.ar    1  UNL1        0.0478
     15 C         139.4352  151.7089  152.4617 C.ar    1  UNL1        0.0142
     16 C         139.6296  150.3029  152.9470 C.ar    1  UNL1       -0.0030
     17 N         138.7390  154.1702  152.9168 N.pl3   1  UNL1       -0.3075
     18 C         137.4570  154.9479  152.9581 C.3     1  UNL1        0.0908
     19 C         137.7182  156.3037  152.3718 C.3     1  UNL1        0.0232
     20 C         139.1616  156.3638  151.9681 C.3     1  UNL1        0.0232
     21 C         139.7925  155.0452  152.3050 C.3     1  UNL1        0.0908
     22 O         138.0583  140.8140  158.1430 O.2     1  UNL1       -0.2733
     23 C         139.4108  140.1711  158.0567 C.2     1  UNL1        0.2426
     24 N         140.5689  140.9341  157.4852 N.am    1  UNL1       -0.3018
     25 H         141.4565  140.5121  157.4286 H       1  UNL1        0.1495
     26 C         139.6052  138.7652  158.5419 C.3     1  UNL1        0.1759
     27 N         140.3884  138.5056  159.7947 N.am    1  UNL1       -0.2931
     28 C         139.6893  138.4635  161.1211 C.2     1  UNL1        0.2462
     29 O         138.2070  138.6811  161.1949 O.2     1  UNL1       -0.2701
     30 H         141.3613  138.3628  159.7463 H       1  UNL1        0.1502
     31 C         140.4726  138.2040  162.3738 C.ar    1  UNL1        0.0533
     32 C         139.8715  137.3860  163.4781 C.ar    1  UNL1        0.0045
     33 C         140.6547  137.1264  164.7308 C.ar    1  UNL1        0.0001
     34 C         142.0390  137.6849  164.8791 C.ar    1  UNL1        0.0039
     35 C         142.6400  138.5029  163.7748 C.ar    1  UNL1        0.0716
     36 C         141.8568  138.7625  162.5222 C.ar    1  UNL1        0.0084
     37 C         144.0242  139.0614  163.9231 C.3     1  UNL1        0.4186
     38 F         145.4084  139.6199  164.0715 F       1  UNL1       -0.1659
     39 F         144.3854  138.5258  162.5694 F       1  UNL1       -0.1659
     40 F         143.6630  139.5971  165.2769 F       1  UNL1       -0.1659
@<TRIPOS>BOND
     1    22    23    2
     2    23    26    1
     3    26    27    1
     4    27    28   am
     5    28    29    2
     6    28    31    1
     7    31    32   ar
     8    32    33   ar
     9    33    34   ar
    10    34    35   ar
    11    35    37    1
    12    37    38    1
    13    37    39    1
    14    37    40    1
    15    35    36   ar
    16    23    24   am
    17    24     1    1
    18     1     2    1
    19     2     3    1
    20     5     3    1
    21     5     6    1
    22     6     7    1
    23     7     8    1
    24     8    11    1
    25    11    12   ar
    26    12    13   ar
    27    13    14   ar
    28    14    17    1
    29    17    18    1
    30    18    19    1
    31    19    20    1
    32    20    21    1
    33    14    15   ar
    34    15    16   ar
    35     8     9    1
    36     9    10    1
    37     3     4    1
    38    36    31   ar
    39     4     1    1
    40    10     5    1
    41    16    11   ar
    42    21    17    1
    43    27    30    1
    44    24    25    1
@<TRIPOS>MOLECULE
*****
 40 44 0 0 0
SMALL
GASTEIGER

@<TRIPOS>ATOM
      1 C         142.8910  136.9164  156.7422 C.3     1  UNL1        0.1035
      2 C         142.9322  136.3971  158.1489 C.3     1  UNL1        0.0933
      3 N         142.8135  137.7988  158.6698 N.3     1  UNL1       -0.2711
      4 C         142.7723  138.3180  157.2631 C.3     1  UNL1        0.0933
      5 C         142.7588  138.4227  160.0327 C.3     1  UNL1        0.0576
      6 C         141.4447  138.5587  160.7431 C.3     1  UNL1        0.0163
      7 C         141.3899  139.1826  162.1061 C.3     1  UNL1        0.0057
      8 C         142.6493  139.6706  162.7587 C.3     1  UNL1        0.0224
      9 C         143.9634  139.5346  162.0483 C.3     1  UNL1        0.0057
     10 C         144.0182  138.9107  160.6854 C.3     1  UNL1        0.0163
     11 C         142.5945  140.2945  164.1216 C.ar    1  UNL1       -0.0224
     12 C         142.1872  139.4713  165.3075 C.ar    1  UNL1       -0.0030
     13 C         142.1324  140.0953  166.6706 C.ar    1  UNL1        0.0142
     14 C         142.4850  141.5424  166.8476 C.ar    1  UNL1        0.0478
     15 C         142.8923  142.3657  165.6617 C.ar    1  UNL1        0.0142
     16 C         142.9471  141.7417  164.2987 C.ar    1  UNL1       -0.0030
     17 N         142.4302  142.1664  168.2106 N.pl3   1  UNL1       -0.3075
     18 C         141.2287  142.8079  168.8390 C.3     1  UNL1        0.0908
     19 C         141.6233  143.2964  170.2012 C.3     1  UNL1        0.0232
     20 C         143.0687  142.9569  170.4147 C.3     1  UNL1        0.0232
     21 C         143.5674  142.2585  169.1843 C.3     1  UNL1        0.0908
     22 O         140.3509  136.1745  155.3289 O.2     1  UNL1       -0.2733
     23 C         141.6757  135.9215  154.6726 C.2     1  UNL1        0.2426
     24 N         142.9458  136.2924  155.3792 N.am    1  UNL1       -0.3018
     25 H         143.8153  136.1263  154.9485 H       1  UNL1        0.1495
     26 C         141.7306  135.2975  153.3097 C.3     1  UNL1        0.1759
     27 N         142.4305  133.9854  153.1131 N.am    1  UNL1       -0.2931
     28 C         142.5134  133.0028  154.2434 C.2     1  UNL1        0.2462
     29 O         141.8964  133.3322  155.5703 O.2     1  UNL1       -0.2701
     30 H         142.8355  133.7692  152.2422 H       1  UNL1        0.1502
     31 C         143.2133  131.6907  154.0468 C.ar    1  UNL1        0.0533
     32 C         143.4477  131.1659  152.6613 C.ar    1  UNL1        0.0045
     33 C         144.1476  129.8539  152.4648 C.ar    1  UNL1        0.0001
     34 C         144.6131  129.0667  153.6537 C.ar    1  UNL1        0.0039
     35 C         144.3787  129.5914  155.0392 C.ar    1  UNL1        0.0716
     36 C         143.6788  130.9035  155.2357 C.ar    1  UNL1        0.0084
     37 C         144.8442  128.8042  156.2281 C.3     1  UNL1        0.4186
     38 F         145.3096  128.0169  157.4171 F       1  UNL1       -0.1659
     39 F         143.8826  129.5545  157.1014 F       1  UNL1       -0.1659
     40 F         145.8057  128.0539  155.3549 F       1  UNL1       -0.1659
@<TRIPOS>BOND
     1    22    23    2
     2    23    26    1
     3    26    27    1
     4    27    28   am
     5    28    29    2
     6    28    31    1
     7    31    32   ar
     8    32    33   ar
     9    33    34   ar
    10    34    35   ar
    11    35    37    1
    12    37    38    1
    13    37    39    1
    14    37    40    1
    15    35    36   ar
    16    23    24   am
    17    24     1    1
    18     1     2    1
    19     2     3    1
    20     5     3    1
    21     5     6    1
    22     6     7    1
    23     7     8    1
    24     8    11    1
    25    11    12   ar
    26    12    13   ar
    27    13    14   ar
    28    14    17    1
    29    17    18    1
    30    18    19    1
    31    19    20    1
    32    20    21    1
    33    14    15   ar
    34    15    16   ar
    35     8     9    1
    36     9    10    1
    37     3     4    1
    38    36    31   ar
    39     4     1    1
    40    10     5    1
    41    16    11   ar
    42    21    17    1
    43    27    30    1
    44    24    25    1
@<TRIPOS>MOLECULE
*****
 40 44 0 0 0
SMALL
GASTEIGER

@<TRIPOS>ATOM
      1 C         141.1231  141.7819  156.1996 C.3     1  UNL1        0.1035
      2 C         139.9895  142.4832  155.5118 C.3     1  UNL1        0.0933
      3 N         140.6649  143.8024  155.7438 N.3     1  UNL1       -0.2711
      4 C         141.7985  143.1010  156.4316 C.3     1  UNL1        0.0933
      5 C         140.3409  145.2310  155.4215 C.3     1  UNL1        0.0576
      6 C         139.5222  146.0482  156.3765 C.3     1  UNL1        0.0163
      7 C         139.1982  147.4770  156.0541 C.3     1  UNL1        0.0057
      8 C         139.6929  148.0884  154.7768 C.3     1  UNL1        0.0224
      9 C         140.5116  147.2712  153.8219 C.3     1  UNL1        0.0057
     10 C         140.8356  145.8425  154.1442 C.3     1  UNL1        0.0163
     11 C         139.3689  149.5170  154.4545 C.ar    1  UNL1       -0.0224
     12 C         139.6522  150.0598  153.0852 C.ar    1  UNL1       -0.0030
     13 C         139.3281  151.4886  152.7629 C.ar    1  UNL1        0.0142
     14 C         138.7209  152.3744  153.8100 C.ar    1  UNL1        0.0478
     15 C         138.4376  151.8317  155.1793 C.ar    1  UNL1        0.0142
     16 C         138.7616  150.4030  155.5016 C.ar    1  UNL1       -0.0030
     17 N         138.3968  153.8032  153.4877 N.pl3   1  UNL1       -0.3075
     18 C         138.7197  154.5131  152.2064 C.3     1  UNL1        0.0908
     19 C         138.2155  155.9215  152.3170 C.3     1  UNL1        0.0232
     20 C         137.5809  156.0819  153.6666 C.3     1  UNL1        0.0232
     21 C         137.6930  154.7727  154.3902 C.3     1  UNL1        0.0908
     22 O         140.5382  140.6908  158.9323 O.2     1  UNL1       -0.2733
     23 C         141.1546  139.8076  157.8882 C.2     1  UNL1        0.2426
     24 N         141.4471  140.3532  156.5219 N.am    1  UNL1       -0.3018
     25 H         141.8517  139.7735  155.8367 H       1  UNL1        0.1495
     26 C         141.4786  138.3789  158.2105 C.3     1  UNL1        0.1759
     27 N         141.2443  137.3075  157.1871 N.am    1  UNL1       -0.2931
     28 C         142.3889  136.7905  156.3670 C.2     1  UNL1        0.2462
     29 O         143.7678  137.3447  156.5704 O.2     1  UNL1       -0.2701
     30 H         140.3393  136.9437  157.0536 H       1  UNL1        0.1502
     31 C         142.1546  135.7190  155.3437 C.ar    1  UNL1        0.0533
     32 C         142.0855  136.0745  153.8881 C.ar    1  UNL1        0.0045
     33 C         141.8512  135.0031  152.8648 C.ar    1  UNL1        0.0001
     34 C         141.6861  133.5763  153.2971 C.ar    1  UNL1        0.0039
     35 C         141.7552  133.2208  154.7527 C.ar    1  UNL1        0.0716
     36 C         141.9895  134.2922  155.7760 C.ar    1  UNL1        0.0084
     37 C         141.5901  131.7940  155.1850 C.3     1  UNL1        0.4186
     38 F         141.4250  130.3672  155.6173 F       1  UNL1       -0.1659
     39 F         142.3656  132.0833  156.4360 F       1  UNL1       -0.1659
     40 F         140.8146  131.5047  153.9340 F       1  UNL1       -0.1659
@<TRIPOS>BOND
     1    22    23    2
     2    23    26    1
     3    26    27    1
     4    27    28   am
     5    28    29    2
     6    28    31    1
     7    31    32   ar
     8    32    33   ar
     9    33    34   ar
    10    34    35   ar
    11    35    37    1
    12    37    38    1
    13    37    39    1
    14    37    40    1
    15    35    36   ar
    16    23    24   am
    17    24     1    1
    18     1     2    1
    19     2     3    1
    20     5     3    1
    21     5     6    1
    22     6     7    1
    23     7     8    1
    24     8    11    1
    25    11    12   ar
    26    12    13   ar
    27    13    14   ar
    28    14    17    1
    29    17    18    1
    30    18    19    1
    31    19    20    1
    32    20    21    1
    33    14    15   ar
    34    15    16   ar
    35     8     9    1
    36     9    10    1
    37     3     4    1
    38    36    31   ar
    39     4     1    1
    40    10     5    1
    41    16    11   ar
    42    21    17    1
    43    27    30    1
    44    24    25    1
