@<TRIPOS>MOLECULE
*****
 35 39 0 0 0
SMALL
GASTEIGER

@<TRIPOS>ATOM
      1 N         138.2340  141.0560  164.6142 N.3     1  UNL1       -0.2724
      2 C         138.2399  140.0649  165.7401 C.3     1  UNL1        0.0721
      3 C         138.5506  138.7140  165.1669 C.3     1  UNL1        0.0187
      4 C         138.7366  138.8702  163.6867 C.3     1  UNL1        0.0178
      5 C         138.5410  140.3176  163.3451 C.3     1  UNL1        0.0721
      6 C         137.9678  142.5272  164.7360 C.3     1  UNL1        0.0768
      7 C         139.1044  143.4783  164.9675 C.3     1  UNL1        0.0439
      8 C         140.2835  143.0518  165.7908 C.ar    1  UNL1       -0.0193
      9 C         141.5939  142.7519  165.1253 C.ar    1  UNL1       -0.0041
     10 C         142.7729  142.3253  165.9486 C.ar    1  UNL1        0.0012
     11 C         142.6416  142.1987  167.4375 C.ar    1  UNL1        0.0176
     12 C         141.3312  142.4985  168.1030 C.ar    1  UNL1        0.0667
     13 C         140.1522  142.9251  167.2797 C.ar    1  UNL1        0.0134
     14 N         141.1999  142.3718  169.5919 N.ar    1  UNL1       -0.2690
     15 C         142.3251  142.1638  170.5617 C.ar    1  UNL1        0.2069
     16 N         141.7410  142.0943  171.9416 N.ar    1  UNL1       -0.1251
     17 N         140.2547  142.2594  171.8245 N.ar    1  UNL1       -0.1251
     18 C         139.9203  142.4309  170.3723 C.ar    1  UNL1        0.2069
     19 C         139.0618  144.8560  164.3758 C.3     1  UNL1        0.0474
     20 O         138.5608  144.6037  161.8389 O.co2   1  UNL1       -0.5492
     21 C         139.4596  145.0706  162.9455 C.2     1  UNL1        0.0507
     22 O         140.7560  145.7520  162.6217 O.co2   1  UNL1       -0.5492
     23 C         139.0614  137.7718  162.7182 C.3     1  UNL1        0.0077
     24 C         140.3264  137.8304  161.9144 C.3     1  UNL1        0.0459
     25 C         141.5458  138.4943  162.4823 C.ar    1  UNL1        0.0603
     26 C         142.1559  137.9813  163.7530 C.ar    1  UNL1        0.0145
     27 C         143.3753  138.6451  164.3209 C.ar    1  UNL1       -0.0003
     28 C         143.9845  139.8220  163.6181 C.ar    1  UNL1        0.0092
     29 C         143.3744  140.3350  162.3475 C.ar    1  UNL1        0.1240
     30 N         142.1550  139.6711  161.7796 N.ar    1  UNL1       -0.2356
     31 N         143.9836  141.5118  161.6447 N.pl3   1  UNL1       -0.3184
     32 C         145.2029  142.1756  162.2126 C.3     1  UNL1        0.0885
     33 C         145.8130  141.6626  163.4833 C.3     1  UNL1        0.0260
     34 C         145.2038  140.4858  164.1860 C.3     1  UNL1        0.0309
     35 H         143.5831  141.8485  160.8108 H       1  UNL1        0.1482
@<TRIPOS>UNITY_ATOM_ATTR
20 1
charge -1
@<TRIPOS>BOND
     1    20    21   ar
     2    21    22   ar
     3    21    19    1
     4     7    19    1
     5     7     6    1
     6     6     1    1
     7     1     2    1
     8     2     3    1
     9     3     4    1
    10     4    23    1
    11    23    24    1
    12    24    25    1
    13    25    26   ar
    14    26    27   ar
    15    27    28   ar
    16    28    29   ar
    17    29    30   ar
    18    29    31    1
    19    31    32    1
    20    32    33    1
    21    33    34    1
    22     4     5    1
    23     7     8    1
    24     8     9   ar
    25     9    10   ar
    26    10    11   ar
    27    11    12   ar
    28    12    14    1
    29    14    15   ar
    30    15    16   ar
    31    16    17   ar
    32    17    18   ar
    33    12    13   ar
    34     5     1    1
    35    13     8   ar
    36    30    25   ar
    37    18    14   ar
    38    34    28    1
    39    31    35    1
@<TRIPOS>MOLECULE
*****
 35 39 0 0 0
SMALL
GASTEIGER

@<TRIPOS>ATOM
      1 N         138.0728  141.2616  164.4213 N.3     1  UNL1       -0.2724
      2 C         137.4260  141.4089  163.0760 C.3     1  UNL1        0.0721
      3 C         137.7021  142.7968  162.5784 C.3     1  UNL1        0.0187
      4 C         138.5195  143.5073  163.6162 C.3     1  UNL1        0.0178
      5 C         138.7486  142.5585  164.7552 C.3     1  UNL1        0.0721
      6 C         138.0482  140.0332  165.2817 C.3     1  UNL1        0.0768
      7 C         139.2270  139.1058  165.2990 C.3     1  UNL1        0.0439
      8 C         140.3822  139.3781  166.2164 C.ar    1  UNL1       -0.0193
      9 C         141.7572  138.9017  165.8528 C.ar    1  UNL1       -0.0041
     10 C         142.9123  139.1740  166.7702 C.ar    1  UNL1        0.0012
     11 C         142.6924  139.9229  168.0511 C.ar    1  UNL1        0.0176
     12 C         141.3173  140.3993  168.4147 C.ar    1  UNL1        0.0667
     13 C         140.1622  140.1270  167.4974 C.ar    1  UNL1        0.0134
     14 N         141.0974  141.1482  169.6957 N.ar    1  UNL1       -0.2690
     15 C         142.0700  141.2551  170.8326 C.ar    1  UNL1        0.2069
     16 N         141.4399  142.0945  171.9043 N.ar    1  UNL1       -0.1251
     17 N         140.0779  142.5064  171.4296 N.ar    1  UNL1       -0.1251
     18 C         139.8662  141.9214  170.0646 C.ar    1  UNL1        0.2069
     19 C         139.2507  137.9061  164.3989 C.3     1  UNL1        0.0474
     20 O         140.8304  138.4842  162.4189 O.co2   1  UNL1       -0.5492
     21 C         139.4786  138.0777  162.9263 C.2     1  UNL1        0.0507
     22 O         138.3547  137.8429  161.9611 O.co2   1  UNL1       -0.5492
     23 C         139.0199  144.9187  163.5301 C.3     1  UNL1        0.0077
     24 C         140.3144  145.2141  162.8324 C.3     1  UNL1        0.0459
     25 C         141.5512  144.4434  163.1882 C.ar    1  UNL1        0.0603
     26 C         142.6712  145.1197  163.9219 C.ar    1  UNL1        0.0145
     27 C         143.9079  144.3491  164.2777 C.ar    1  UNL1       -0.0003
     28 C         144.0246  142.9021  163.8999 C.ar    1  UNL1        0.0092
     29 C         142.9046  142.2258  163.1662 C.ar    1  UNL1        0.1240
     30 N         141.6679  142.9965  162.8104 N.ar    1  UNL1       -0.2356
     31 N         143.0213  140.7789  162.7884 N.pl3   1  UNL1       -0.3184
     32 C         144.2580  140.0083  163.1442 C.3     1  UNL1        0.0885
     33 C         145.3780  140.6845  163.8779 C.3     1  UNL1        0.0260
     34 C         145.2613  142.1315  164.2557 C.3     1  UNL1        0.0309
     35 H         142.2862  140.3350  162.3069 H       1  UNL1        0.1482
@<TRIPOS>UNITY_ATOM_ATTR
20 1
charge -1
@<TRIPOS>BOND
     1    20    21   ar
     2    21    22   ar
     3    21    19    1
     4     7    19    1
     5     7     6    1
     6     6     1    1
     7     1     2    1
     8     2     3    1
     9     3     4    1
    10     4    23    1
    11    23    24    1
    12    24    25    1
    13    25    26   ar
    14    26    27   ar
    15    27    28   ar
    16    28    29   ar
    17    29    30   ar
    18    29    31    1
    19    31    32    1
    20    32    33    1
    21    33    34    1
    22     4     5    1
    23     7     8    1
    24     8     9   ar
    25     9    10   ar
    26    10    11   ar
    27    11    12   ar
    28    12    14    1
    29    14    15   ar
    30    15    16   ar
    31    16    17   ar
    32    17    18   ar
    33    12    13   ar
    34     5     1    1
    35    13     8   ar
    36    30    25   ar
    37    18    14   ar
    38    34    28    1
    39    31    35    1
@<TRIPOS>MOLECULE
*****
 35 39 0 0 0
SMALL
GASTEIGER

@<TRIPOS>ATOM
      1 N         141.9649  143.9792  164.1297 N.3     1  UNL1       -0.2724
      2 C         142.6930  144.7465  163.0661 C.3     1  UNL1        0.0721
      3 C         144.0657  144.1578  162.9273 C.3     1  UNL1        0.0187
      4 C         144.1860  143.0267  163.9051 C.3     1  UNL1        0.0178
      5 C         142.8877  142.9163  164.6482 C.3     1  UNL1        0.0721
      6 C         140.5607  144.2306  164.5934 C.3     1  UNL1        0.0768
      7 C         139.5843  143.0951  164.6784 C.3     1  UNL1        0.0439
      8 C         139.6604  142.1245  165.8196 C.ar    1  UNL1       -0.0193
      9 C         139.0870  140.7463  165.6716 C.ar    1  UNL1       -0.0041
     10 C         139.1630  139.7758  166.8127 C.ar    1  UNL1        0.0012
     11 C         139.8125  140.1834  168.1020 C.ar    1  UNL1        0.0176
     12 C         140.3859  141.5615  168.2500 C.ar    1  UNL1        0.0667
     13 C         140.3098  142.5321  167.1089 C.ar    1  UNL1        0.0134
     14 N         141.0353  141.9691  169.5393 N.ar    1  UNL1       -0.2690
     15 C         140.6778  141.4629  170.9052 C.ar    1  UNL1        0.2069
     16 N         141.5778  142.1354  171.8991 N.ar    1  UNL1       -0.1251
     17 N         142.4916  143.0573  171.1473 N.ar    1  UNL1       -0.1251
     18 C         142.1563  142.9544  169.6888 C.ar    1  UNL1        0.2069
     19 C         138.5319  142.9301  163.6224 C.3     1  UNL1        0.0474
     20 O         138.0776  143.3029  161.0916 O.co2   1  UNL1       -0.5492
     21 C         138.9311  142.7395  162.1891 C.2     1  UNL1        0.0507
     22 O         140.1836  141.9856  161.8532 O.co2   1  UNL1       -0.5492
     23 C         145.3927  142.1585  164.1047 C.3     1  UNL1        0.0077
     24 C         145.3596  140.7196  163.6821 C.3     1  UNL1        0.0459
     25 C         144.1056  139.9152  163.8570 C.ar    1  UNL1        0.0603
     26 C         143.8642  139.1713  165.1370 C.ar    1  UNL1        0.0145
     27 C         142.6103  138.3669  165.3120 C.ar    1  UNL1       -0.0003
     28 C         141.5977  138.3064  164.2070 C.ar    1  UNL1        0.0092
     29 C         141.8391  139.0503  162.9270 C.ar    1  UNL1        0.1240
     30 N         143.0930  139.8548  162.7520 N.ar    1  UNL1       -0.2356
     31 N         140.8265  138.9899  161.8220 N.pl3   1  UNL1       -0.3184
     32 C         139.5726  138.1855  161.9970 C.3     1  UNL1        0.0885
     33 C         139.3313  137.4416  163.2770 C.3     1  UNL1        0.0260
     34 C         140.3438  137.5020  164.3819 C.3     1  UNL1        0.0309
     35 H         140.9849  139.4781  160.9819 H       1  UNL1        0.1482
@<TRIPOS>UNITY_ATOM_ATTR
20 1
charge -1
@<TRIPOS>BOND
     1    20    21   ar
     2    21    22   ar
     3    21    19    1
     4     7    19    1
     5     7     6    1
     6     6     1    1
     7     1     2    1
     8     2     3    1
     9     3     4    1
    10     4    23    1
    11    23    24    1
    12    24    25    1
    13    25    26   ar
    14    26    27   ar
    15    27    28   ar
    16    28    29   ar
    17    29    30   ar
    18    29    31    1
    19    31    32    1
    20    32    33    1
    21    33    34    1
    22     4     5    1
    23     7     8    1
    24     8     9   ar
    25     9    10   ar
    26    10    11   ar
    27    11    12   ar
    28    12    14    1
    29    14    15   ar
    30    15    16   ar
    31    16    17   ar
    32    17    18   ar
    33    12    13   ar
    34     5     1    1
    35    13     8   ar
    36    30    25   ar
    37    18    14   ar
    38    34    28    1
    39    31    35    1
@<TRIPOS>MOLECULE
*****
 35 39 0 0 0
SMALL
GASTEIGER

@<TRIPOS>ATOM
      1 N         142.0928  144.2837  164.3442 N.3     1  UNL1       -0.2724
      2 C         142.0416  145.1670  163.1328 C.3     1  UNL1        0.0721
      3 C         140.6103  145.2732  162.6968 C.3     1  UNL1        0.0187
      4 C         139.7769  144.4557  163.6386 C.3     1  UNL1        0.0178
      5 C         140.6931  143.8441  164.6567 C.3     1  UNL1        0.0721
      6 C         143.3269  143.9063  165.1086 C.3     1  UNL1        0.0768
      7 C         143.7763  142.4757  165.1486 C.3     1  UNL1        0.0439
      8 C         143.1865  141.5321  166.1546 C.ar    1  UNL1       -0.0193
      9 C         143.2493  140.0517  165.9213 C.ar    1  UNL1       -0.0041
     10 C         142.6595  139.1083  166.9273 C.ar    1  UNL1        0.0012
     11 C         142.0068  139.6452  168.1666 C.ar    1  UNL1        0.0176
     12 C         141.9440  141.1256  168.3999 C.ar    1  UNL1        0.0667
     13 C         142.5338  142.0691  167.3939 C.ar    1  UNL1        0.0134
     14 N         141.2914  141.6625  169.6392 N.ar    1  UNL1       -0.2690
     15 C         140.1724  142.6603  169.6848 C.ar    1  UNL1        0.2069
     16 N         139.8326  142.9104  171.1242 N.ar    1  UNL1       -0.1251
     17 N         140.7417  142.0672  171.9683 N.ar    1  UNL1       -0.1251
     18 C         141.6434  141.2959  171.0504 C.ar    1  UNL1        0.2069
     19 C         144.8154  141.9887  164.1827 C.3     1  UNL1        0.0474
     20 O         143.0479  141.2749  162.4172 O.co2   1  UNL1       -0.5492
     21 C         144.4423  141.7115  162.7564 C.2     1  UNL1        0.0507
     22 O         145.4637  141.8710  161.6695 O.co2   1  UNL1       -0.5492
     23 C         138.2886  144.2805  163.5737 C.3     1  UNL1        0.0077
     24 C         137.7063  142.9917  163.0737 C.3     1  UNL1        0.0459
     25 C         138.3090  141.6837  163.4933 C.ar    1  UNL1        0.0603
     26 C         137.9041  141.0540  164.7931 C.ar    1  UNL1        0.0145
     27 C         138.5066  139.7460  165.2127 C.ar    1  UNL1       -0.0003
     28 C         139.5142  139.0677  164.3324 C.ar    1  UNL1        0.0092
     29 C         139.9192  139.6974  163.0326 C.ar    1  UNL1        0.1240
     30 N         139.3165  141.0055  162.6131 N.ar    1  UNL1       -0.2356
     31 N         140.9267  139.0192  162.1524 N.pl3   1  UNL1       -0.3184
     32 C         141.5293  137.7113  162.5720 C.3     1  UNL1        0.0885
     33 C         141.1244  137.0815  163.8718 C.3     1  UNL1        0.0260
     34 C         140.1168  137.7598  164.7520 C.3     1  UNL1        0.0309
     35 H         141.1925  139.4325  161.2993 H       1  UNL1        0.1482
@<TRIPOS>UNITY_ATOM_ATTR
20 1
charge -1
@<TRIPOS>BOND
     1    20    21   ar
     2    21    22   ar
     3    21    19    1
     4     7    19    1
     5     7     6    1
     6     6     1    1
     7     1     2    1
     8     2     3    1
     9     3     4    1
    10     4    23    1
    11    23    24    1
    12    24    25    1
    13    25    26   ar
    14    26    27   ar
    15    27    28   ar
    16    28    29   ar
    17    29    30   ar
    18    29    31    1
    19    31    32    1
    20    32    33    1
    21    33    34    1
    22     4     5    1
    23     7     8    1
    24     8     9   ar
    25     9    10   ar
    26    10    11   ar
    27    11    12   ar
    28    12    14    1
    29    14    15   ar
    30    15    16   ar
    31    16    17   ar
    32    17    18   ar
    33    12    13   ar
    34     5     1    1
    35    13     8   ar
    36    30    25   ar
    37    18    14   ar
    38    34    28    1
    39    31    35    1
@<TRIPOS>MOLECULE
*****
 35 39 0 0 0
SMALL
GASTEIGER

@<TRIPOS>ATOM
      1 N         141.2154  138.1814  164.2410 N.3     1  UNL1       -0.2724
      2 C         139.9728  137.6757  164.9122 C.3     1  UNL1        0.0721
      3 C         138.8734  137.6482  163.8922 C.3     1  UNL1        0.0187
      4 C         139.4363  138.1370  162.5906 C.3     1  UNL1        0.0178
      5 C         140.8838  138.4665  162.8062 C.3     1  UNL1        0.0721
      6 C         142.5543  138.3691  164.8906 C.3     1  UNL1        0.0768
      7 C         143.0915  139.7514  165.1159 C.3     1  UNL1        0.0439
      8 C         142.2283  140.7958  165.7596 C.ar    1  UNL1       -0.0193
      9 C         141.4296  141.7377  164.9082 C.ar    1  UNL1       -0.0041
     10 C         140.5665  142.7820  165.5519 C.ar    1  UNL1        0.0012
     11 C         140.5021  142.8845  167.0470 C.ar    1  UNL1        0.0176
     12 C         141.3009  141.9426  167.8984 C.ar    1  UNL1        0.0667
     13 C         142.1640  140.8983  167.2547 C.ar    1  UNL1        0.0134
     14 N         141.2365  142.0451  169.3936 N.ar    1  UNL1       -0.2690
     15 C         142.4108  142.1296  170.3229 C.ar    1  UNL1        0.2069
     16 N         141.8866  142.2177  171.7255 N.ar    1  UNL1       -0.1251
     17 N         140.3882  142.1877  171.6630 N.ar    1  UNL1       -0.1251
     18 C         139.9864  142.0810  170.2217 C.ar    1  UNL1        0.2069
     19 C         144.4918  140.0893  164.6975 C.3     1  UNL1        0.0474
     20 O         145.9609  141.5657  163.1444 O.co2   1  UNL1       -0.5492
     21 C         144.7439  140.7150  163.3577 C.2     1  UNL1        0.0507
     22 O         143.7791  140.4901  162.2314 O.co2   1  UNL1       -0.5492
     23 C         138.6840  138.2725  161.3000 C.3     1  UNL1        0.0077
     24 C         137.6317  139.3313  161.1530 C.3     1  UNL1        0.0459
     25 C         137.9107  140.7340  161.6054 C.ar    1  UNL1        0.0603
     26 C         137.3916  141.2123  162.9289 C.ar    1  UNL1        0.0145
     27 C         137.6706  142.6149  163.3814 C.ar    1  UNL1       -0.0003
     28 C         138.4686  143.5393  162.5103 C.ar    1  UNL1        0.0092
     29 C         138.9877  143.0610  161.1868 C.ar    1  UNL1        0.1240
     30 N         138.7088  141.6582  160.7344 N.ar    1  UNL1       -0.2356
     31 N         139.7858  143.9852  160.3158 N.pl3   1  UNL1       -0.3184
     32 C         140.0647  145.3879  160.7682 C.3     1  UNL1        0.0885
     33 C         139.5456  145.8662  162.0918 C.3     1  UNL1        0.0260
     34 C         138.7476  144.9419  162.9628 C.3     1  UNL1        0.0309
     35 H         140.1265  143.6713  159.4471 H       1  UNL1        0.1482
@<TRIPOS>UNITY_ATOM_ATTR
20 1
charge -1
@<TRIPOS>BOND
     1    20    21   ar
     2    21    22   ar
     3    21    19    1
     4     7    19    1
     5     7     6    1
     6     6     1    1
     7     1     2    1
     8     2     3    1
     9     3     4    1
    10     4    23    1
    11    23    24    1
    12    24    25    1
    13    25    26   ar
    14    26    27   ar
    15    27    28   ar
    16    28    29   ar
    17    29    30   ar
    18    29    31    1
    19    31    32    1
    20    32    33    1
    21    33    34    1
    22     4     5    1
    23     7     8    1
    24     8     9   ar
    25     9    10   ar
    26    10    11   ar
    27    11    12   ar
    28    12    14    1
    29    14    15   ar
    30    15    16   ar
    31    16    17   ar
    32    17    18   ar
    33    12    13   ar
    34     5     1    1
    35    13     8   ar
    36    30    25   ar
    37    18    14   ar
    38    34    28    1
    39    31    35    1
@<TRIPOS>MOLECULE
*****
 35 39 0 0 0
SMALL
GASTEIGER

@<TRIPOS>ATOM
      1 N         138.0005  140.4866  163.1697 N.3     1  UNL1       -0.2724
      2 C         137.9717  141.2927  161.9050 C.3     1  UNL1        0.0721
      3 C         137.8487  142.7397  162.2802 C.3     1  UNL1        0.0187
      4 C         137.8015  142.8281  163.7769 C.3     1  UNL1        0.0178
      5 C         137.8953  141.4356  164.3266 C.3     1  UNL1        0.0721
      6 C         138.1144  138.9938  163.2614 C.3     1  UNL1        0.0768
      7 C         139.1240  138.3737  164.1813 C.3     1  UNL1        0.0439
      8 C         140.5882  138.4924  163.8773 C.ar    1  UNL1       -0.0193
      9 C         141.5909  138.4584  164.9924 C.ar    1  UNL1       -0.0041
     10 C         143.0549  138.5771  164.6883 C.ar    1  UNL1        0.0012
     11 C         143.5163  138.7296  163.2692 C.ar    1  UNL1        0.0176
     12 C         142.5136  138.7636  162.1541 C.ar    1  UNL1        0.0667
     13 C         141.0495  138.6450  162.4582 C.ar    1  UNL1        0.0134
     14 N         142.9749  138.9162  160.7350 N.ar    1  UNL1       -0.2690
     15 C         143.8415  140.0190  160.2034 C.ar    1  UNL1        0.2069
     16 N         144.0529  139.7772  158.7382 N.ar    1  UNL1       -0.1251
     17 N         143.3169  138.5248  158.3643 N.ar    1  UNL1       -0.1251
     18 C         142.6506  137.9927  159.5985 C.ar    1  UNL1        0.2069
     19 C         138.6696  137.6351  165.4052 C.3     1  UNL1        0.0474
     20 O         136.9722  137.9245  167.3509 O.co2   1  UNL1       -0.5492
     21 C         138.1844  138.3959  166.6035 C.2     1  UNL1        0.0507
     22 O         138.9113  139.6281  167.0543 O.co2   1  UNL1       -0.5492
     23 C         137.6816  144.0877  164.5824 C.3     1  UNL1        0.0077
     24 C         138.8963  144.6806  165.2326 C.3     1  UNL1        0.0459
     25 C         140.2308  144.0131  165.0784 C.ar    1  UNL1        0.0603
     26 C         140.6932  143.0162  166.0994 C.ar    1  UNL1        0.0145
     27 C         142.0276  142.3487  165.9452 C.ar    1  UNL1       -0.0003
     28 C         142.8997  142.6782  164.7700 C.ar    1  UNL1        0.0092
     29 C         142.4373  143.6751  163.7491 C.ar    1  UNL1        0.1240
     30 N         141.1028  144.3426  163.9033 N.ar    1  UNL1       -0.2356
     31 N         143.3094  144.0046  162.5740 N.pl3   1  UNL1       -0.3184
     32 C         144.6438  143.3371  162.4198 C.3     1  UNL1        0.0885
     33 C         145.1061  142.3402  163.4407 C.3     1  UNL1        0.0260
     34 C         144.2341  142.0107  164.6158 C.3     1  UNL1        0.0309
     35 H         143.0059  144.6589  161.9039 H       1  UNL1        0.1482
@<TRIPOS>UNITY_ATOM_ATTR
20 1
charge -1
@<TRIPOS>BOND
     1    20    21   ar
     2    21    22   ar
     3    21    19    1
     4     7    19    1
     5     7     6    1
     6     6     1    1
     7     1     2    1
     8     2     3    1
     9     3     4    1
    10     4    23    1
    11    23    24    1
    12    24    25    1
    13    25    26   ar
    14    26    27   ar
    15    27    28   ar
    16    28    29   ar
    17    29    30   ar
    18    29    31    1
    19    31    32    1
    20    32    33    1
    21    33    34    1
    22     4     5    1
    23     7     8    1
    24     8     9   ar
    25     9    10   ar
    26    10    11   ar
    27    11    12   ar
    28    12    14    1
    29    14    15   ar
    30    15    16   ar
    31    16    17   ar
    32    17    18   ar
    33    12    13   ar
    34     5     1    1
    35    13     8   ar
    36    30    25   ar
    37    18    14   ar
    38    34    28    1
    39    31    35    1
@<TRIPOS>MOLECULE
*****
 35 39 0 0 0
SMALL
GASTEIGER

@<TRIPOS>ATOM
      1 N         140.0458  138.0894  162.9966 N.3     1  UNL1       -0.2724
      2 C         139.4710  138.4421  161.6567 C.3     1  UNL1        0.0721
      3 C         140.5667  138.3310  160.6384 C.3     1  UNL1        0.0187
      4 C         141.8188  137.9096  161.3489 C.3     1  UNL1        0.0178
      5 C         141.4968  137.7603  162.8063 C.3     1  UNL1        0.0721
      6 C         139.3005  138.0692  164.2982 C.3     1  UNL1        0.0768
      7 C         139.2634  139.2963  165.1602 C.3     1  UNL1        0.0439
      8 C         140.3219  139.5143  166.2005 C.ar    1  UNL1       -0.0193
      9 C         141.7045  138.9725  165.9887 C.ar    1  UNL1       -0.0041
     10 C         142.7629  139.1906  167.0290 C.ar    1  UNL1        0.0012
     11 C         142.4388  139.9505  168.2810 C.ar    1  UNL1        0.0176
     12 C         141.0562  140.4923  168.4928 C.ar    1  UNL1        0.0667
     13 C         139.9977  140.2742  167.4525 C.ar    1  UNL1        0.0134
     14 N         140.7320  141.2522  169.7448 N.ar    1  UNL1       -0.2690
     15 C         139.6924  142.3248  169.8809 C.ar    1  UNL1        0.2069
     16 N         139.7084  142.8084  171.3007 N.ar    1  UNL1       -0.1251
     17 N         140.7580  142.0346  172.0421 N.ar    1  UNL1       -0.1251
     18 C         141.3906  141.0727  171.0804 C.ar    1  UNL1        0.2069
     19 C         138.1678  140.3052  164.9820 C.3     1  UNL1        0.0474
     20 O         139.5240  141.7812  163.3290 O.co2   1  UNL1       -0.5492
     21 C         138.2080  141.2597  163.8256 C.2     1  UNL1        0.0507
     22 O         136.9325  141.6929  163.1659 O.co2   1  UNL1       -0.5492
     23 C         143.1577  137.6782  160.7135 C.3     1  UNL1        0.0077
     24 C         144.1422  138.8049  160.6073 C.3     1  UNL1        0.0459
     25 C         144.2114  139.8446  161.6864 C.ar    1  UNL1        0.0603
     26 C         144.6071  139.4543  163.0796 C.ar    1  UNL1        0.0145
     27 C         144.6763  140.4940  164.1586 C.ar    1  UNL1       -0.0003
     28 C         144.3498  141.9240  163.8444 C.ar    1  UNL1        0.0092
     29 C         143.9541  142.3142  162.4512 C.ar    1  UNL1        0.1240
     30 N         143.8849  141.2745  161.3721 N.ar    1  UNL1       -0.2356
     31 N         143.6277  143.7441  162.1369 N.pl3   1  UNL1       -0.3184
     32 C         143.6969  144.7837  163.2159 C.3     1  UNL1        0.0885
     33 C         144.0925  144.3935  164.6092 C.3     1  UNL1        0.0260
     34 C         144.4190  142.9636  164.9234 C.3     1  UNL1        0.0309
     35 H         143.3680  144.0002  161.2225 H       1  UNL1        0.1482
@<TRIPOS>UNITY_ATOM_ATTR
20 1
charge -1
@<TRIPOS>BOND
     1    20    21   ar
     2    21    22   ar
     3    21    19    1
     4     7    19    1
     5     7     6    1
     6     6     1    1
     7     1     2    1
     8     2     3    1
     9     3     4    1
    10     4    23    1
    11    23    24    1
    12    24    25    1
    13    25    26   ar
    14    26    27   ar
    15    27    28   ar
    16    28    29   ar
    17    29    30   ar
    18    29    31    1
    19    31    32    1
    20    32    33    1
    21    33    34    1
    22     4     5    1
    23     7     8    1
    24     8     9   ar
    25     9    10   ar
    26    10    11   ar
    27    11    12   ar
    28    12    14    1
    29    14    15   ar
    30    15    16   ar
    31    16    17   ar
    32    17    18   ar
    33    12    13   ar
    34     5     1    1
    35    13     8   ar
    36    30    25   ar
    37    18    14   ar
    38    34    28    1
    39    31    35    1
@<TRIPOS>MOLECULE
*****
 35 39 0 0 0
SMALL
GASTEIGER

@<TRIPOS>ATOM
      1 N         142.8865  141.0913  166.9874 N.3     1  UNL1       -0.2724
      2 C         143.3514  142.4117  166.4484 C.3     1  UNL1        0.0721
      3 C         143.9825  142.1695  165.1093 C.3     1  UNL1        0.0187
      4 C         143.9076  140.6994  164.8207 C.3     1  UNL1        0.0178
      5 C         143.2302  140.0331  165.9814 C.3     1  UNL1        0.0721
      6 C         142.1986  140.8683  168.3016 C.3     1  UNL1        0.0768
      7 C         140.7191  141.0851  168.4200 C.3     1  UNL1        0.0439
      8 C         139.8346  140.8913  167.2240 C.ar    1  UNL1       -0.0193
      9 C         139.0979  139.5980  167.0377 C.ar    1  UNL1       -0.0041
     10 C         138.2134  139.4043  165.8418 C.ar    1  UNL1        0.0012
     11 C         138.0657  140.5038  164.8322 C.ar    1  UNL1        0.0176
     12 C         138.8024  141.7970  165.0185 C.ar    1  UNL1        0.0667
     13 C         139.6868  141.9908  166.2144 C.ar    1  UNL1        0.0134
     14 N         138.6546  142.8965  164.0089 N.ar    1  UNL1       -0.2690
     15 C         139.2641  144.2641  164.0991 C.ar    1  UNL1        0.2069
     16 N         138.8576  145.0343  162.8778 N.ar    1  UNL1       -0.1251
     17 N         137.9970  144.1426  162.0327 N.ar    1  UNL1       -0.1251
     18 C         137.8715  142.8213  162.7318 C.ar    1  UNL1        0.2069
     19 C         140.1241  141.4957  169.7342 C.3     1  UNL1        0.0474
     20 O         141.4785  142.1250  171.8602 O.co2   1  UNL1       -0.5492
     21 C         140.8108  142.5278  170.5787 C.2     1  UNL1        0.0507
     22 O         140.8299  143.9626  170.1418 O.co2   1  UNL1       -0.5492
     23 C         144.4201  140.0157  163.5879 C.3     1  UNL1        0.0077
     24 C         143.8291  138.7066  163.1558 C.3     1  UNL1        0.0459
     25 C         142.3670  138.6135  162.8339 C.ar    1  UNL1        0.0603
     26 C         141.5044  137.6139  163.5458 C.ar    1  UNL1        0.0145
     27 C         140.0424  137.5207  163.2239 C.ar    1  UNL1       -0.0003
     28 C         139.4427  138.4273  162.1901 C.ar    1  UNL1        0.0092
     29 C         140.3053  139.4269  161.4782 C.ar    1  UNL1        0.1240
     30 N         141.7674  139.5200  161.8001 N.ar    1  UNL1       -0.2356
     31 N         139.7057  140.3334  160.4444 N.pl3   1  UNL1       -0.3184
     32 C         138.2436  140.2403  160.1226 C.3     1  UNL1        0.0885
     33 C         137.3811  139.2407  160.8345 C.3     1  UNL1        0.0260
     34 C         137.9807  138.3342  161.8683 C.3     1  UNL1        0.0309
     35 H         140.2718  140.9895  159.9772 H       1  UNL1        0.1482
@<TRIPOS>UNITY_ATOM_ATTR
20 1
charge -1
@<TRIPOS>BOND
     1    20    21   ar
     2    21    22   ar
     3    21    19    1
     4     7    19    1
     5     7     6    1
     6     6     1    1
     7     1     2    1
     8     2     3    1
     9     3     4    1
    10     4    23    1
    11    23    24    1
    12    24    25    1
    13    25    26   ar
    14    26    27   ar
    15    27    28   ar
    16    28    29   ar
    17    29    30   ar
    18    29    31    1
    19    31    32    1
    20    32    33    1
    21    33    34    1
    22     4     5    1
    23     7     8    1
    24     8     9   ar
    25     9    10   ar
    26    10    11   ar
    27    11    12   ar
    28    12    14    1
    29    14    15   ar
    30    15    16   ar
    31    16    17   ar
    32    17    18   ar
    33    12    13   ar
    34     5     1    1
    35    13     8   ar
    36    30    25   ar
    37    18    14   ar
    38    34    28    1
    39    31    35    1
@<TRIPOS>MOLECULE
*****
 35 39 0 0 0
SMALL
GASTEIGER

@<TRIPOS>ATOM
      1 N         142.8761  138.5564  163.2841 N.3     1  UNL1       -0.2724
      2 C         143.1018  138.9401  161.8516 C.3     1  UNL1        0.0721
      3 C         144.1785  139.9839  161.8155 C.3     1  UNL1        0.0187
      4 C         144.6182  140.2452  163.2256 C.3     1  UNL1        0.0178
      5 C         143.8133  139.3630  164.1332 C.3     1  UNL1        0.0721
      6 C         141.8869  137.5438  163.7803 C.3     1  UNL1        0.0768
      7 C         140.4362  137.9071  163.8966 C.3     1  UNL1        0.0439
      8 C         139.9107  138.4971  165.1718 C.ar    1  UNL1       -0.0193
      9 C         138.5394  138.1320  165.6579 C.ar    1  UNL1       -0.0041
     10 C         138.0140  138.7220  166.9330 C.ar    1  UNL1        0.0012
     11 C         138.8599  139.6770  167.7220 C.ar    1  UNL1        0.0176
     12 C         140.2311  140.0421  167.2358 C.ar    1  UNL1        0.0667
     13 C         140.7565  139.4521  165.9607 C.ar    1  UNL1        0.0134
     14 N         141.0770  140.9972  168.0248 N.ar    1  UNL1       -0.2690
     15 C         140.6075  142.2713  168.6620 C.ar    1  UNL1        0.2069
     16 N         141.7811  142.9074  169.3461 N.ar    1  UNL1       -0.1251
     17 N         142.9760  142.0263  169.1316 N.ar    1  UNL1       -0.1251
     18 C         142.5407  140.8457  168.3150 C.ar    1  UNL1        0.2069
     19 C         139.5110  137.6804  162.7379 C.3     1  UNL1        0.0474
     20 O         137.4692  138.8039  161.5894 O.co2   1  UNL1       -0.5492
     21 C         138.9048  138.8509  162.0220 C.2     1  UNL1        0.0507
     22 O         139.7340  140.0683  161.7388 O.co2   1  UNL1       -0.5492
     23 C         145.6770  141.2180  163.6530 C.3     1  UNL1        0.0077
     24 C         145.2878  142.5112  164.3057 C.3     1  UNL1        0.0459
     25 C         143.9049  143.0605  164.1164 C.ar    1  UNL1        0.0603
     26 C         142.8660  142.8596  165.1796 C.ar    1  UNL1        0.0145
     27 C         141.4831  143.4089  164.9903 C.ar    1  UNL1       -0.0003
     28 C         141.1390  144.1591  163.7378 C.ar    1  UNL1        0.0092
     29 C         142.1779  144.3601  162.6746 C.ar    1  UNL1        0.1240
     30 N         143.5608  143.8107  162.8639 N.ar    1  UNL1       -0.2356
     31 N         141.8338  145.1103  161.4221 N.pl3   1  UNL1       -0.3184
     32 C         140.4509  145.6596  161.2328 C.3     1  UNL1        0.0885
     33 C         139.4121  145.4586  162.2960 C.3     1  UNL1        0.0260
     34 C         139.7561  144.7084  163.5485 C.3     1  UNL1        0.0309
     35 H         142.5157  145.2422  160.7243 H       1  UNL1        0.1482
@<TRIPOS>UNITY_ATOM_ATTR
20 1
charge -1
@<TRIPOS>BOND
     1    20    21   ar
     2    21    22   ar
     3    21    19    1
     4     7    19    1
     5     7     6    1
     6     6     1    1
     7     1     2    1
     8     2     3    1
     9     3     4    1
    10     4    23    1
    11    23    24    1
    12    24    25    1
    13    25    26   ar
    14    26    27   ar
    15    27    28   ar
    16    28    29   ar
    17    29    30   ar
    18    29    31    1
    19    31    32    1
    20    32    33    1
    21    33    34    1
    22     4     5    1
    23     7     8    1
    24     8     9   ar
    25     9    10   ar
    26    10    11   ar
    27    11    12   ar
    28    12    14    1
    29    14    15   ar
    30    15    16   ar
    31    16    17   ar
    32    17    18   ar
    33    12    13   ar
    34     5     1    1
    35    13     8   ar
    36    30    25   ar
    37    18    14   ar
    38    34    28    1
    39    31    35    1
