@<TRIPOS>MOLECULE
*****
 29 32 0 0 0
SMALL
GASTEIGER

@<TRIPOS>ATOM
      1 C         138.6265  141.8938  161.3239 C.3     1  UNL1        0.0501
      2 C         139.4587  142.5616  162.3783 C.ar    1  UNL1        0.0404
      3 C         140.0766  143.9249  162.2815 C.ar    1  UNL1        0.0074
      4 C         140.8188  144.1891  163.5579 C.ar    1  UNL1        0.0158
      5 C         140.6597  142.9891  164.4436 C.ar    1  UNL1        0.0647
      6 N         139.8190  141.9831  163.7145 N.ar    1  UNL1       -0.2957
      7 C         139.4105  140.6354  164.2310 C.ar    1  UNL1        0.1476
      8 C         138.4253  140.5309  165.3572 C.ar    1  UNL1        0.0397
      9 C         138.0167  139.1832  165.8738 C.ar    1  UNL1        0.0343
     10 C         138.5935  137.9399  165.2640 C.ar    1  UNL1        0.1593
     11 F         138.1850  136.5922  165.7805 F       1  UNL1       -0.2025
     12 C         139.5787  138.0444  164.1378 C.ar    1  UNL1        0.1300
     13 N         139.9873  139.3922  163.6213 N.ar    1  UNL1       -0.2241
     14 C         141.2394  142.8239  165.8171 C.ar    1  UNL1        0.0161
     15 C         140.3598  142.9628  167.0241 C.ar    1  UNL1        0.0011
     16 C         140.9394  142.7977  168.3977 C.ar    1  UNL1       -0.0042
     17 C         142.3987  142.4935  168.5642 C.ar    1  UNL1       -0.0225
     18 C         143.2784  142.3545  167.3573 C.ar    1  UNL1       -0.0042
     19 C         142.6987  142.5197  165.9837 C.ar    1  UNL1        0.0011
     20 C         142.9784  142.3283  169.9378 C.3     1  UNL1        0.0224
     21 C         144.4418  142.5639  170.1676 C.3     1  UNL1        0.0047
     22 C         142.0946  141.9274  171.0816 C.3     1  UNL1        0.0047
     23 C         139.9708  144.8599  161.1133 C.3     1  UNL1        0.1004
     24 N         140.8892  144.6991  159.9383 N.3     1  UNL1       -0.2646
     25 C         142.0171  143.7121  159.9976 C.3     1  UNL1        0.1049
     26 C         142.9355  143.5513  158.8226 C.3     1  UNL1        0.1595
     27 O         142.7260  144.3776  157.5883 O.3     1  UNL1       -0.3508
     28 C         141.5981  145.3646  157.5290 C.3     1  UNL1        0.1595
     29 C         140.6797  145.5254  158.7040 C.3     1  UNL1        0.1049
@<TRIPOS>BOND
     1     1     2    1
     2     2     3   ar
     3     3    23    1
     4    23    24    1
     5    24    25    1
     6    25    26    1
     7    26    27    1
     8    27    28    1
     9    28    29    1
    10     3     4   ar
    11     4     5   ar
    12     5    14    1
    13    14    15   ar
    14    15    16   ar
    15    16    17   ar
    16    17    20    1
    17    20    21    1
    18    20    22    1
    19    17    18   ar
    20    18    19   ar
    21     5     6   ar
    22     6     7    1
    23     7     8   ar
    24     8     9   ar
    25     9    10   ar
    26    10    11    1
    27    10    12   ar
    28    12    13   ar
    29     6     2   ar
    30    13     7   ar
    31    29    24    1
    32    19    14   ar
@<TRIPOS>MOLECULE
*****
 29 32 0 0 0
SMALL
GASTEIGER

@<TRIPOS>ATOM
      1 C         141.5656  140.4025  160.7055 C.3     1  UNL1        0.0501
      2 C         141.9637  141.2731  161.8603 C.ar    1  UNL1        0.0404
      3 C         142.8111  142.5083  161.7822 C.ar    1  UNL1        0.0074
      4 C         142.9554  143.0599  163.1697 C.ar    1  UNL1        0.0158
      5 C         142.1972  142.1655  164.1053 C.ar    1  UNL1        0.0647
      6 N         141.5843  141.0612  163.2960 N.ar    1  UNL1       -0.2957
      7 C         140.7402  139.9416  163.8289 C.ar    1  UNL1        0.1476
      8 C         141.3697  138.6222  164.1650 C.ar    1  UNL1        0.0397
      9 C         140.5256  137.5025  164.6979 C.ar    1  UNL1        0.0343
     10 C         139.0520  137.7023  164.8947 C.ar    1  UNL1        0.1593
     11 F         138.2079  136.5827  165.4276 F       1  UNL1       -0.2025
     12 C         138.4226  139.0217  164.5585 C.ar    1  UNL1        0.1300
     13 N         139.2667  140.1413  164.0256 N.ar    1  UNL1       -0.2241
     14 C         142.0737  142.3441  165.5894 C.ar    1  UNL1        0.0161
     15 C         140.7376  142.6480  166.1996 C.ar    1  UNL1        0.0011
     16 C         140.6140  142.8266  167.6838 C.ar    1  UNL1       -0.0042
     17 C         141.8265  142.7013  168.5578 C.ar    1  UNL1       -0.0225
     18 C         143.1627  142.3974  167.9477 C.ar    1  UNL1       -0.0042
     19 C         143.2863  142.2188  166.4635 C.ar    1  UNL1        0.0011
     20 C         141.7029  142.8798  170.0420 C.3     1  UNL1        0.0224
     21 C         142.8922  143.3131  170.8469 C.3     1  UNL1        0.0047
     22 C         140.3900  142.6252  170.7213 C.3     1  UNL1        0.0047
     23 C         143.4091  143.0899  160.5356 C.3     1  UNL1        0.1004
     24 N         142.5590  143.9024  159.6044 N.3     1  UNL1       -0.2646
     25 C         141.3890  144.6745  160.1381 C.3     1  UNL1        0.1049
     26 C         140.5389  145.4870  159.2068 C.3     1  UNL1        0.1595
     27 O         140.8588  145.5273  157.7419 O.3     1  UNL1       -0.3508
     28 C         142.0289  144.7552  157.2082 C.3     1  UNL1        0.1595
     29 C         142.8789  143.9427  158.1394 C.3     1  UNL1        0.1049
@<TRIPOS>BOND
     1     1     2    1
     2     2     3   ar
     3     3    23    1
     4    23    24    1
     5    24    25    1
     6    25    26    1
     7    26    27    1
     8    27    28    1
     9    28    29    1
    10     3     4   ar
    11     4     5   ar
    12     5    14    1
    13    14    15   ar
    14    15    16   ar
    15    16    17   ar
    16    17    20    1
    17    20    21    1
    18    20    22    1
    19    17    18   ar
    20    18    19   ar
    21     5     6   ar
    22     6     7    1
    23     7     8   ar
    24     8     9   ar
    25     9    10   ar
    26    10    11    1
    27    10    12   ar
    28    12    13   ar
    29     6     2   ar
    30    13     7   ar
    31    29    24    1
    32    19    14   ar
@<TRIPOS>MOLECULE
*****
 29 32 0 0 0
SMALL
GASTEIGER

@<TRIPOS>ATOM
      1 C         142.6887  139.3298  158.3677 C.3     1  UNL1        0.0501
      2 C         141.5210  139.0421  159.2641 C.ar    1  UNL1        0.0404
      3 C         140.1770  138.5391  158.8274 C.ar    1  UNL1        0.0074
      4 C         139.3177  138.3931  160.0481 C.ar    1  UNL1        0.0158
      5 C         140.1305  138.8058  161.2393 C.ar    1  UNL1        0.0647
      6 N         141.4922  139.2069  160.7548 N.ar    1  UNL1       -0.2957
      7 C         142.6261  139.6884  161.6107 C.ar    1  UNL1        0.1476
      8 C         143.2766  138.7551  162.5883 C.ar    1  UNL1        0.0397
      9 C         144.4105  139.2364  163.4443 C.ar    1  UNL1        0.0343
     10 C         144.8940  140.6512  163.3224 C.ar    1  UNL1        0.1593
     11 F         146.0279  141.1327  164.1783 F       1  UNL1       -0.2025
     12 C         144.2435  141.5845  162.3447 C.ar    1  UNL1        0.1300
     13 N         143.1096  141.1031  161.4888 N.ar    1  UNL1       -0.2241
     14 C         139.6635  138.8156  162.6648 C.ar    1  UNL1        0.0161
     15 C         139.0044  140.0388  163.2296 C.ar    1  UNL1        0.0011
     16 C         138.5374  140.0487  164.6550 C.ar    1  UNL1       -0.0042
     17 C         138.7297  138.8354  165.5156 C.ar    1  UNL1       -0.0225
     18 C         139.3889  137.6121  164.9508 C.ar    1  UNL1       -0.0042
     19 C         139.8558  137.6022  163.5254 C.ar    1  UNL1        0.0011
     20 C         138.2628  138.8452  166.9410 C.3     1  UNL1        0.0224
     21 C         138.9156  139.7563  167.9378 C.3     1  UNL1        0.0047
     22 C         137.1429  137.9440  167.3697 C.3     1  UNL1        0.0047
     23 C         139.7649  138.2355  157.4175 C.3     1  UNL1        0.1004
     24 N         138.8792  139.1901  156.6729 N.3     1  UNL1       -0.2646
     25 C         138.4592  138.8819  155.2663 C.3     1  UNL1        0.1049
     26 C         137.5736  139.8365  154.5218 C.3     1  UNL1        0.1595
     27 O         137.1080  141.0994  155.1838 O.3     1  UNL1       -0.3508
     28 C         137.5280  141.4076  156.5904 C.3     1  UNL1        0.1595
     29 C         138.4136  140.4530  157.3349 C.3     1  UNL1        0.1049
@<TRIPOS>BOND
     1     1     2    1
     2     2     3   ar
     3     3    23    1
     4    23    24    1
     5    24    25    1
     6    25    26    1
     7    26    27    1
     8    27    28    1
     9    28    29    1
    10     3     4   ar
    11     4     5   ar
    12     5    14    1
    13    14    15   ar
    14    15    16   ar
    15    16    17   ar
    16    17    20    1
    17    20    21    1
    18    20    22    1
    19    17    18   ar
    20    18    19   ar
    21     5     6   ar
    22     6     7    1
    23     7     8   ar
    24     8     9   ar
    25     9    10   ar
    26    10    11    1
    27    10    12   ar
    28    12    13   ar
    29     6     2   ar
    30    13     7   ar
    31    29    24    1
    32    19    14   ar
@<TRIPOS>MOLECULE
*****
 29 32 0 0 0
SMALL
GASTEIGER

@<TRIPOS>ATOM
      1 C         143.4076  139.8872  158.4033 C.3     1  UNL1        0.0501
      2 C         142.2355  139.4373  159.2242 C.ar    1  UNL1        0.0404
      3 C         141.0166  138.7316  158.7082 C.ar    1  UNL1        0.0074
      4 C         140.1043  138.4723  159.8703 C.ar    1  UNL1        0.0158
      5 C         140.7594  139.0176  161.1046 C.ar    1  UNL1        0.0647
      6 N         142.0766  139.6140  160.7052 N.ar    1  UNL1       -0.2957
      7 C         143.0619  140.2717  161.6254 C.ar    1  UNL1        0.1476
      8 C         143.8692  139.4403  162.5778 C.ar    1  UNL1        0.0397
      9 C         144.8545  140.0979  163.4980 C.ar    1  UNL1        0.0343
     10 C         145.0325  141.5870  163.4658 C.ar    1  UNL1        0.1593
     11 F         146.0178  142.2447  164.3860 F       1  UNL1       -0.2025
     12 C         144.2252  142.4184  162.5134 C.ar    1  UNL1        0.1300
     13 N         143.2399  141.7607  161.5932 N.ar    1  UNL1       -0.2241
     14 C         140.1963  138.9742  162.4942 C.ar    1  UNL1        0.0161
     15 C         139.5556  140.1962  163.0823 C.ar    1  UNL1        0.0011
     16 C         138.9925  140.1528  164.4719 C.ar    1  UNL1       -0.0042
     17 C         139.0701  138.8873  165.2734 C.ar    1  UNL1       -0.0225
     18 C         139.7108  137.6652  164.6853 C.ar    1  UNL1       -0.0042
     19 C         140.2740  137.7086  163.2957 C.ar    1  UNL1        0.0011
     20 C         138.5070  138.8439  166.6630 C.3     1  UNL1        0.0224
     21 C         139.0600  139.7474  167.7249 C.3     1  UNL1        0.0047
     22 C         137.3908  137.8969  166.9906 C.3     1  UNL1        0.0047
     23 C         140.7557  138.3520  157.2807 C.3     1  UNL1        0.1004
     24 N         141.3265  137.0804  156.7264 N.3     1  UNL1       -0.2646
     25 C         140.6131  136.3562  155.6235 C.3     1  UNL1        0.1049
     26 C         141.1839  135.0846  155.0693 C.3     1  UNL1        0.1595
     27 O         142.4682  134.5372  155.6180 O.3     1  UNL1       -0.3508
     28 C         143.1816  135.2614  156.7209 C.3     1  UNL1        0.1595
     29 C         142.6107  136.5330  157.2752 C.3     1  UNL1        0.1049
@<TRIPOS>BOND
     1     1     2    1
     2     2     3   ar
     3     3    23    1
     4    23    24    1
     5    24    25    1
     6    25    26    1
     7    26    27    1
     8    27    28    1
     9    28    29    1
    10     3     4   ar
    11     4     5   ar
    12     5    14    1
    13    14    15   ar
    14    15    16   ar
    15    16    17   ar
    16    17    20    1
    17    20    21    1
    18    20    22    1
    19    17    18   ar
    20    18    19   ar
    21     5     6   ar
    22     6     7    1
    23     7     8   ar
    24     8     9   ar
    25     9    10   ar
    26    10    11    1
    27    10    12   ar
    28    12    13   ar
    29     6     2   ar
    30    13     7   ar
    31    29    24    1
    32    19    14   ar
@<TRIPOS>MOLECULE
*****
 29 32 0 0 0
SMALL
GASTEIGER

@<TRIPOS>ATOM
      1 C         140.8159  139.8818  167.0047 C.3     1  UNL1        0.0501
      2 C         141.3534  140.9755  166.1302 C.ar    1  UNL1        0.0404
      3 C         142.3620  142.0104  166.5322 C.ar    1  UNL1        0.0074
      4 C         142.6087  142.9008  165.3506 C.ar    1  UNL1        0.0158
      5 C         141.7526  142.4162  164.2182 C.ar    1  UNL1        0.0647
      6 N         140.9768  141.2262  164.7001 N.ar    1  UNL1       -0.2957
      7 C         139.9965  140.4273  163.8934 C.ar    1  UNL1        0.1476
      8 C         138.6810  141.0310  163.4995 C.ar    1  UNL1        0.0397
      9 C         137.7006  140.2322  162.6928 C.ar    1  UNL1        0.0343
     10 C         138.0358  138.8295  162.2801 C.ar    1  UNL1        0.1593
     11 F         137.0554  138.0306  161.4735 F       1  UNL1       -0.2025
     12 C         139.3512  138.2258  162.6741 C.ar    1  UNL1        0.1300
     13 N         140.3315  139.0247  163.4808 N.ar    1  UNL1       -0.2241
     14 C         141.6843  143.0161  162.8451 C.ar    1  UNL1        0.0161
     15 C         140.7656  144.1709  162.5761 C.ar    1  UNL1        0.0011
     16 C         140.6973  144.7708  161.2030 C.ar    1  UNL1       -0.0042
     17 C         141.5477  144.2160  160.0990 C.ar    1  UNL1       -0.0225
     18 C         142.4664  143.0612  160.3680 C.ar    1  UNL1       -0.0042
     19 C         142.5347  142.4613  161.7411 C.ar    1  UNL1        0.0011
     20 C         141.4794  144.8160  158.7259 C.3     1  UNL1        0.0224
     21 C         140.3535  145.7394  158.3661 C.3     1  UNL1        0.0047
     22 C         142.5370  144.4924  157.7126 C.3     1  UNL1        0.0047
     23 C         143.0101  142.1334  167.8794 C.3     1  UNL1        0.1004
     24 N         142.1685  142.1154  169.1210 N.3     1  UNL1       -0.2646
     25 C         140.9692  143.0100  169.2272 C.3     1  UNL1        0.1049
     26 C         140.1277  142.9920  170.4687 C.3     1  UNL1        0.1595
     27 O         140.4856  142.0794  171.6041 O.3     1  UNL1       -0.3508
     28 C         141.6849  141.1848  171.4980 C.3     1  UNL1        0.1595
     29 C         142.5263  141.2028  170.2564 C.3     1  UNL1        0.1049
@<TRIPOS>BOND
     1     1     2    1
     2     2     3   ar
     3     3    23    1
     4    23    24    1
     5    24    25    1
     6    25    26    1
     7    26    27    1
     8    27    28    1
     9    28    29    1
    10     3     4   ar
    11     4     5   ar
    12     5    14    1
    13    14    15   ar
    14    15    16   ar
    15    16    17   ar
    16    17    20    1
    17    20    21    1
    18    20    22    1
    19    17    18   ar
    20    18    19   ar
    21     5     6   ar
    22     6     7    1
    23     7     8   ar
    24     8     9   ar
    25     9    10   ar
    26    10    11    1
    27    10    12   ar
    28    12    13   ar
    29     6     2   ar
    30    13     7   ar
    31    29    24    1
    32    19    14   ar
@<TRIPOS>MOLECULE
*****
 29 32 0 0 0
SMALL
GASTEIGER

@<TRIPOS>ATOM
      1 C         140.2583  140.0893  160.4458 C.3     1  UNL1        0.0501
      2 C         141.1378  139.7783  161.6204 C.ar    1  UNL1        0.0404
      3 C         142.2601  138.7834  161.6427 C.ar    1  UNL1        0.0074
      4 C         142.8653  138.7979  163.0152 C.ar    1  UNL1        0.0158
      5 C         142.1170  139.8019  163.8411 C.ar    1  UNL1        0.0647
      6 N         141.0493  140.4078  162.9791 N.ar    1  UNL1       -0.2957
      7 C         140.0659  141.4587  163.4016 C.ar    1  UNL1        0.1476
      8 C         138.7705  141.0589  164.0434 C.ar    1  UNL1        0.0397
      9 C         137.7870  142.1097  164.4660 C.ar    1  UNL1        0.0343
     10 C         138.0990  143.5605  164.2466 C.ar    1  UNL1        0.1593
     11 F         137.1156  144.6114  164.6691 F       1  UNL1       -0.2025
     12 C         139.3945  143.9603  163.6047 C.ar    1  UNL1        0.1300
     13 N         140.3779  142.9094  163.1822 N.ar    1  UNL1       -0.2241
     14 C         142.3887  140.1404  165.2769 C.ar    1  UNL1        0.0161
     15 C         142.3167  139.0711  166.3262 C.ar    1  UNL1        0.0011
     16 C         142.5883  139.4097  167.7620 C.ar    1  UNL1       -0.0042
     17 C         142.9320  140.8176  168.1485 C.ar    1  UNL1       -0.0225
     18 C         143.0040  141.8871  167.0992 C.ar    1  UNL1       -0.0042
     19 C         142.7323  141.5485  165.6634 C.ar    1  UNL1        0.0011
     20 C         143.2036  141.1562  169.5843 C.3     1  UNL1        0.0224
     21 C         142.8098  140.1973  170.6684 C.3     1  UNL1        0.0047
     22 C         143.8691  142.4537  169.9360 C.3     1  UNL1        0.0047
     23 C         142.7000  137.9247  160.4942 C.3     1  UNL1        0.1004
     24 N         143.0953  138.5575  159.1929 N.3     1  UNL1       -0.2646
     25 C         143.8259  139.8675  159.1874 C.3     1  UNL1        0.1049
     26 C         144.2213  140.5002  157.8861 C.3     1  UNL1        0.1595
     27 O         143.8859  139.8230  156.5904 O.3     1  UNL1       -0.3508
     28 C         143.1553  138.5130  156.5959 C.3     1  UNL1        0.1595
     29 C         142.7600  137.8803  157.8972 C.3     1  UNL1        0.1049
@<TRIPOS>BOND
     1     1     2    1
     2     2     3   ar
     3     3    23    1
     4    23    24    1
     5    24    25    1
     6    25    26    1
     7    26    27    1
     8    27    28    1
     9    28    29    1
    10     3     4   ar
    11     4     5   ar
    12     5    14    1
    13    14    15   ar
    14    15    16   ar
    15    16    17   ar
    16    17    20    1
    17    20    21    1
    18    20    22    1
    19    17    18   ar
    20    18    19   ar
    21     5     6   ar
    22     6     7    1
    23     7     8   ar
    24     8     9   ar
    25     9    10   ar
    26    10    11    1
    27    10    12   ar
    28    12    13   ar
    29     6     2   ar
    30    13     7   ar
    31    29    24    1
    32    19    14   ar
@<TRIPOS>MOLECULE
*****
 29 32 0 0 0
SMALL
GASTEIGER

@<TRIPOS>ATOM
      1 C         141.2166  142.8763  160.2628 C.3     1  UNL1        0.0501
      2 C         141.9921  142.1962  161.3519 C.ar    1  UNL1        0.0404
      3 C         143.2706  141.4312  161.1781 C.ar    1  UNL1        0.0074
      4 C         143.6939  140.9239  162.5248 C.ar    1  UNL1        0.0158
      5 C         142.6770  141.3754  163.5308 C.ar    1  UNL1        0.0647
      6 N         141.6252  142.1617  162.8059 N.ar    1  UNL1       -0.2957
      7 C         140.4184  142.8013  163.4261 C.ar    1  UNL1        0.1476
      8 C         140.5359  144.1443  164.0837 C.ar    1  UNL1        0.0397
      9 C         139.3292  144.7840  164.7039 C.ar    1  UNL1        0.0343
     10 C         138.0049  144.0804  164.6666 C.ar    1  UNL1        0.1593
     11 F         136.7981  144.7200  165.2868 F       1  UNL1       -0.2025
     12 C         137.8874  142.7374  164.0090 C.ar    1  UNL1        0.1300
     13 N         139.0942  142.0978  163.3888 N.ar    1  UNL1       -0.2241
     14 C         142.7067  141.0906  165.0032 C.ar    1  UNL1        0.0161
     15 C         142.8732  142.2153  165.9815 C.ar    1  UNL1        0.0011
     16 C         142.9028  141.9305  167.4539 C.ar    1  UNL1       -0.0042
     17 C         142.7659  140.5209  167.9480 C.ar    1  UNL1       -0.0225
     18 C         142.5994  139.3961  166.9698 C.ar    1  UNL1       -0.0042
     19 C         142.5698  139.6809  165.4974 C.ar    1  UNL1        0.0011
     20 C         142.7956  140.2361  169.4204 C.3     1  UNL1        0.0224
     21 C         142.5102  138.8518  169.9225 C.3     1  UNL1        0.0047
     22 C         143.1107  141.3357  170.3909 C.3     1  UNL1        0.0047
     23 C         143.9981  141.2120  159.8848 C.3     1  UNL1        0.1004
     24 N         143.5922  140.0889  158.9770 N.3     1  UNL1       -0.2646
     25 C         143.7197  140.2427  157.4904 C.3     1  UNL1        0.1049
     26 C         143.3138  139.1197  156.5827 C.3     1  UNL1        0.1595
     27 O         142.7805  137.8428  157.1616 O.3     1  UNL1       -0.3508
     28 C         142.6530  137.6890  158.6482 C.3     1  UNL1        0.1595
     29 C         143.0589  138.8120  159.5559 C.3     1  UNL1        0.1049
@<TRIPOS>BOND
     1     1     2    1
     2     2     3   ar
     3     3    23    1
     4    23    24    1
     5    24    25    1
     6    25    26    1
     7    26    27    1
     8    27    28    1
     9    28    29    1
    10     3     4   ar
    11     4     5   ar
    12     5    14    1
    13    14    15   ar
    14    15    16   ar
    15    16    17   ar
    16    17    20    1
    17    20    21    1
    18    20    22    1
    19    17    18   ar
    20    18    19   ar
    21     5     6   ar
    22     6     7    1
    23     7     8   ar
    24     8     9   ar
    25     9    10   ar
    26    10    11    1
    27    10    12   ar
    28    12    13   ar
    29     6     2   ar
    30    13     7   ar
    31    29    24    1
    32    19    14   ar
@<TRIPOS>MOLECULE
*****
 29 32 0 0 0
SMALL
GASTEIGER

@<TRIPOS>ATOM
      1 C         143.1787  138.7698  166.3216 C.3     1  UNL1        0.0501
      2 C         142.8694  140.1219  165.7506 C.ar    1  UNL1        0.0404
      3 C         142.6903  141.3893  166.5325 C.ar    1  UNL1        0.0074
      4 C         142.3952  142.4947  165.5624 C.ar    1  UNL1        0.0158
      5 C         142.3918  141.9104  164.1809 C.ar    1  UNL1        0.0647
      6 N         142.6850  140.4439  164.2972 N.ar    1  UNL1       -0.2957
      7 C         142.7774  139.4704  163.1598 C.ar    1  UNL1        0.1476
      8 C         144.1193  139.0709  162.6216 C.ar    1  UNL1        0.0397
      9 C         144.2119  138.0974  161.4842 C.ar    1  UNL1        0.0343
     10 C         142.9623  137.5233  160.8849 C.ar    1  UNL1        0.1593
     11 F         143.0547  136.5498  159.7475 F       1  UNL1       -0.2025
     12 C         141.6203  137.9227  161.4231 C.ar    1  UNL1        0.1300
     13 N         141.5279  138.8963  162.5605 N.ar    1  UNL1       -0.2241
     14 C         142.1397  142.6608  162.9069 C.ar    1  UNL1        0.0161
     15 C         140.8364  143.3745  162.7022 C.ar    1  UNL1        0.0011
     16 C         140.5842  144.1250  161.4281 C.ar    1  UNL1       -0.0042
     17 C         141.6354  144.1617  160.3587 C.ar    1  UNL1       -0.0225
     18 C         142.9387  143.4480  160.5634 C.ar    1  UNL1       -0.0042
     19 C         143.1909  142.6976  161.8374 C.ar    1  UNL1        0.0011
     20 C         141.3832  144.9121  159.0847 C.3     1  UNL1        0.0224
     21 C         142.3387  144.7818  157.9358 C.3     1  UNL1        0.0047
     22 C         140.1755  145.7929  158.9595 C.3     1  UNL1        0.0047
     23 C         142.7890  141.5271  168.0229 C.3     1  UNL1        0.1004
     24 N         141.5422  141.6018  168.8534 N.3     1  UNL1       -0.2646
     25 C         141.1888  142.8753  169.5629 C.3     1  UNL1        0.1049
     26 C         139.9419  142.9500  170.3934 C.3     1  UNL1        0.1595
     27 O         139.0485  141.7512  170.5144 O.3     1  UNL1       -0.3508
     28 C         139.4019  140.4777  169.8050 C.3     1  UNL1        0.1595
     29 C         140.6487  140.4031  168.9745 C.3     1  UNL1        0.1049
@<TRIPOS>BOND
     1     1     2    1
     2     2     3   ar
     3     3    23    1
     4    23    24    1
     5    24    25    1
     6    25    26    1
     7    26    27    1
     8    27    28    1
     9    28    29    1
    10     3     4   ar
    11     4     5   ar
    12     5    14    1
    13    14    15   ar
    14    15    16   ar
    15    16    17   ar
    16    17    20    1
    17    20    21    1
    18    20    22    1
    19    17    18   ar
    20    18    19   ar
    21     5     6   ar
    22     6     7    1
    23     7     8   ar
    24     8     9   ar
    25     9    10   ar
    26    10    11    1
    27    10    12   ar
    28    12    13   ar
    29     6     2   ar
    30    13     7   ar
    31    29    24    1
    32    19    14   ar
@<TRIPOS>MOLECULE
*****
 29 32 0 0 0
SMALL
GASTEIGER

@<TRIPOS>ATOM
      1 C         143.1836  138.8839  166.3160 C.3     1  UNL1        0.0501
      2 C         142.8712  140.2254  165.7221 C.ar    1  UNL1        0.0404
      3 C         142.6850  141.5047  166.4829 C.ar    1  UNL1        0.0074
      4 C         142.3888  142.5931  165.4941 C.ar    1  UNL1        0.0158
      5 C         142.3920  141.9865  164.1222 C.ar    1  UNL1        0.0647
      6 N         142.6901  140.5231  164.2632 N.ar    1  UNL1       -0.2957
      7 C         142.7896  139.5317  163.1419 C.ar    1  UNL1        0.1476
      8 C         141.5433  138.9711  162.5236 C.ar    1  UNL1        0.0397
      9 C         141.6427  137.9796  161.4024 C.ar    1  UNL1        0.0343
     10 C         142.9887  137.5487  160.8995 C.ar    1  UNL1        0.1593
     11 F         143.0882  136.5572  159.7783 F       1  UNL1       -0.2025
     12 C         144.2350  138.1093  161.5179 C.ar    1  UNL1        0.1300
     13 N         144.1355  139.1008  162.6391 N.ar    1  UNL1       -0.2241
     14 C         142.1410  142.7152  162.8354 C.ar    1  UNL1        0.0161
     15 C         143.2007  142.7502  161.7743 C.ar    1  UNL1        0.0011
     16 C         142.9497  143.4790  160.4875 C.ar    1  UNL1       -0.0042
     17 C         141.6392  144.1727  160.2617 C.ar    1  UNL1       -0.0225
     18 C         140.5795  144.1378  161.3228 C.ar    1  UNL1       -0.0042
     19 C         140.8304  143.4090  162.6096 C.ar    1  UNL1        0.0011
     20 C         141.3883  144.9015  158.9749 C.3     1  UNL1        0.0224
     21 C         140.1697  145.7633  158.8263 C.3     1  UNL1        0.0047
     22 C         142.3561  144.7684  157.8366 C.3     1  UNL1        0.0047
     23 C         142.7786  141.6670  167.9711 C.3     1  UNL1        0.1004
     24 N         141.5328  141.6552  168.8066 N.3     1  UNL1       -0.2646
     25 C         140.6821  140.4213  168.8673 C.3     1  UNL1        0.1049
     26 C         139.4364  140.4096  169.7028 C.3     1  UNL1        0.1595
     27 O         139.0415  141.6317  170.4777 O.3     1  UNL1       -0.3508
     28 C         139.8923  142.8656  170.4170 C.3     1  UNL1        0.1595
     29 C         141.1379  142.8773  169.5815 C.3     1  UNL1        0.1049
@<TRIPOS>BOND
     1     1     2    1
     2     2     3   ar
     3     3    23    1
     4    23    24    1
     5    24    25    1
     6    25    26    1
     7    26    27    1
     8    27    28    1
     9    28    29    1
    10     3     4   ar
    11     4     5   ar
    12     5    14    1
    13    14    15   ar
    14    15    16   ar
    15    16    17   ar
    16    17    20    1
    17    20    21    1
    18    20    22    1
    19    17    18   ar
    20    18    19   ar
    21     5     6   ar
    22     6     7    1
    23     7     8   ar
    24     8     9   ar
    25     9    10   ar
    26    10    11    1
    27    10    12   ar
    28    12    13   ar
    29     6     2   ar
    30    13     7   ar
    31    29    24    1
    32    19    14   ar
