@<TRIPOS>MOLECULE
*****
 25 27 0 0 0
SMALL
GASTEIGER

@<TRIPOS>ATOM
      1 O         143.0026  138.4950  164.8681 O.2     1  UNL1       -0.2520
      2 C         141.9891  138.3771  163.7686 C.2     1  UNL1        0.3111
      3 N         142.2862  138.1474  162.3164 N.am    1  UNL1       -0.2606
      4 C         140.9813  138.0965  161.5786 C.3     1  UNL1        0.1169
      5 C         139.8775  138.2946  162.5748 C.3     1  UNL1        0.1212
      6 N         140.5003  138.4680  163.9283 N.am    1  UNL1       -0.2413
      7 C         139.7638  138.6929  165.2155 C.ar    1  UNL1        0.0558
      8 C         138.4600  137.9946  165.4655 C.ar    1  UNL1        0.0150
      9 C         137.7235  138.2195  166.7527 C.ar    1  UNL1        0.0017
     10 C         138.2907  139.1427  167.7899 C.ar    1  UNL1        0.0059
     11 C         139.5945  139.8411  167.5399 C.ar    1  UNL1        0.0313
     12 I         140.1617  140.7643  168.5772 I       1  UNL1       -0.0425
     13 C         140.3310  139.6162  166.2527 C.ar    1  UNL1        0.0207
     14 C         143.6492  137.9954  161.7087 C.3     1  UNL1        0.1123
     15 C         144.3655  139.1954  161.1636 C.3     1  UNL1        0.0939
     16 N         144.3003  140.5038  161.8944 N.3     1  UNL1       -0.2712
     17 C         143.4110  141.6012  161.3899 C.3     1  UNL1        0.0724
     18 C         143.3459  142.9095  162.1207 C.3     1  UNL1        0.0258
     19 C         144.1701  143.1203  163.3560 C.3     1  UNL1        0.0979
     20 C         145.0595  142.0229  163.8606 C.3     1  UNL1        0.0258
     21 C         145.1246  140.7146  163.1298 C.3     1  UNL1        0.0724
     22 C         144.1050  144.4287  164.0868 C.3     1  UNL1        0.3976
     23 F         144.0399  145.7370  164.8176 F       1  UNL1       -0.1701
     24 F         143.4064  145.0493  162.9135 F       1  UNL1       -0.1701
     25 F         144.8036  143.8081  165.2601 F       1  UNL1       -0.1701
@<TRIPOS>BOND
     1     1     2    2
     2     2     3   am
     3     3    14    1
     4    14    15    1
     5    15    16    1
     6    16    17    1
     7    17    18    1
     8    18    19    1
     9    19    22    1
    10    22    23    1
    11    22    24    1
    12    22    25    1
    13    19    20    1
    14    20    21    1
    15     3     4    1
    16     4     5    1
    17     5     6    1
    18     6     7    1
    19     7     8   ar
    20     8     9   ar
    21     9    10   ar
    22    10    11   ar
    23    11    12    1
    24    11    13   ar
    25     6     2   am
    26    13     7   ar
    27    21    16    1
@<TRIPOS>MOLECULE
*****
 25 27 0 0 0
SMALL
GASTEIGER

@<TRIPOS>ATOM
      1 O         141.5246  141.1377  162.4842 O.2     1  UNL1       -0.2520
      2 C         140.6973  139.8865  162.4912 C.2     1  UNL1        0.3111
      3 N         139.7596  139.4434  161.4075 N.am    1  UNL1       -0.2606
      4 C         139.1452  138.1417  161.8297 C.3     1  UNL1        0.1169
      5 C         139.7033  137.7802  163.1743 C.3     1  UNL1        0.1212
      6 N         140.6626  138.8585  163.5832 N.am    1  UNL1       -0.2413
      7 C         141.4489  138.9014  164.8598 C.ar    1  UNL1        0.0558
      8 C         142.7716  138.1996  164.9498 C.ar    1  UNL1        0.0150
      9 C         143.5579  138.2425  166.2265 C.ar    1  UNL1        0.0017
     10 C         143.0217  138.9872  167.4130 C.ar    1  UNL1        0.0059
     11 C         141.6990  139.6890  167.3229 C.ar    1  UNL1        0.0313
     12 I         141.1628  140.4337  168.5094 I       1  UNL1       -0.0425
     13 C         140.9127  139.6461  166.0463 C.ar    1  UNL1        0.0207
     14 C         139.4845  140.1738  160.1266 C.3     1  UNL1        0.1123
     15 C         138.6403  141.4137  160.1366 C.3     1  UNL1        0.0939
     16 N         138.5621  142.2578  161.3741 N.3     1  UNL1       -0.2712
     17 C         139.3508  143.5305  161.4650 C.3     1  UNL1        0.0724
     18 C         139.2726  144.3745  162.7025 C.3     1  UNL1        0.0258
     19 C         138.4057  143.9459  163.8491 C.3     1  UNL1        0.0979
     20 C         137.6170  142.6732  163.7583 C.3     1  UNL1        0.0258
     21 C         137.6953  141.8292  162.5208 C.3     1  UNL1        0.0724
     22 C         138.3275  144.7900  165.0867 C.3     1  UNL1        0.3976
     23 F         138.2494  145.6341  166.3241 F       1  UNL1       -0.1701
     24 F         136.9075  144.3539  165.2945 F       1  UNL1       -0.1701
     25 F         139.7475  145.2262  164.8788 F       1  UNL1       -0.1701
@<TRIPOS>BOND
     1     1     2    2
     2     2     3   am
     3     3    14    1
     4    14    15    1
     5    15    16    1
     6    16    17    1
     7    17    18    1
     8    18    19    1
     9    19    22    1
    10    22    23    1
    11    22    24    1
    12    22    25    1
    13    19    20    1
    14    20    21    1
    15     3     4    1
    16     4     5    1
    17     5     6    1
    18     6     7    1
    19     7     8   ar
    20     8     9   ar
    21     9    10   ar
    22    10    11   ar
    23    11    12    1
    24    11    13   ar
    25     6     2   am
    26    13     7   ar
    27    21    16    1
@<TRIPOS>MOLECULE
*****
 25 27 0 0 0
SMALL
GASTEIGER

@<TRIPOS>ATOM
      1 O         143.2080  141.5895  166.2204 O.2     1  UNL1       -0.2520
      2 C         143.1394  140.4623  165.2332 C.2     1  UNL1        0.3111
      3 N         144.1691  140.1384  164.1916 N.am    1  UNL1       -0.2606
      4 C         143.6951  138.9369  163.4289 C.3     1  UNL1        0.1169
      5 C         142.3724  138.5182  163.9990 C.3     1  UNL1        0.1212
      6 N         142.0289  139.4609  165.1141 N.am    1  UNL1       -0.2413
      7 C         140.7921  139.4109  165.9614 C.ar    1  UNL1        0.0558
      8 C         139.5395  138.7848  165.4239 C.ar    1  UNL1        0.0150
      9 C         138.3027  138.7348  166.2712 C.ar    1  UNL1        0.0017
     10 C         138.3186  139.3111  167.6560 C.ar    1  UNL1        0.0059
     11 C         139.5712  139.9373  168.1935 C.ar    1  UNL1        0.0313
     12 I         139.5871  140.5135  169.5783 I       1  UNL1       -0.0425
     13 C         140.8080  139.9872  167.3462 C.ar    1  UNL1        0.0207
     14 C         145.4483  140.8851  163.9545 C.3     1  UNL1        0.1123
     15 C         145.4818  142.0249  162.9800 C.3     1  UNL1        0.0939
     16 N         144.2715  142.8924  162.7986 N.3     1  UNL1       -0.2712
     17 C         144.0219  144.0370  163.7354 C.3     1  UNL1        0.0724
     18 C         142.8117  144.9043  163.5539 C.3     1  UNL1        0.0258
     19 C         141.8511  144.6271  162.4357 C.3     1  UNL1        0.0979
     20 C         142.1007  143.4825  161.4989 C.3     1  UNL1        0.0258
     21 C         143.3109  142.6152  161.6804 C.3     1  UNL1        0.0724
     22 C         140.6408  145.4946  162.2542 C.3     1  UNL1        0.3976
     23 F         139.4306  146.3619  162.0729 F       1  UNL1       -0.1701
     24 F         140.9589  145.6332  160.7950 F       1  UNL1       -0.1701
     25 F         140.3227  145.3559  163.7135 F       1  UNL1       -0.1701
@<TRIPOS>BOND
     1     1     2    2
     2     2     3   am
     3     3    14    1
     4    14    15    1
     5    15    16    1
     6    16    17    1
     7    17    18    1
     8    18    19    1
     9    19    22    1
    10    22    23    1
    11    22    24    1
    12    22    25    1
    13    19    20    1
    14    20    21    1
    15     3     4    1
    16     4     5    1
    17     5     6    1
    18     6     7    1
    19     7     8   ar
    20     8     9   ar
    21     9    10   ar
    22    10    11   ar
    23    11    12    1
    24    11    13   ar
    25     6     2   am
    26    13     7   ar
    27    21    16    1
@<TRIPOS>MOLECULE
*****
 25 27 0 0 0
SMALL
GASTEIGER

@<TRIPOS>ATOM
      1 O         140.5144  141.3638  161.7960 O.2     1  UNL1       -0.2520
      2 C         141.2717  140.0724  161.7030 C.2     1  UNL1        0.3111
      3 N         140.7629  138.7926  161.1086 N.am    1  UNL1       -0.2606
      4 C         141.8476  137.7633  161.2264 C.3     1  UNL1        0.1169
      5 C         143.0268  138.4068  161.8936 C.3     1  UNL1        0.1212
      6 N         142.6710  139.8339  162.1882 N.am    1  UNL1       -0.2413
      7 C         143.5585  140.8450  162.8516 C.ar    1  UNL1        0.0558
      8 C         144.8997  140.4326  163.3818 C.ar    1  UNL1        0.0150
      9 C         145.7872  141.4437  164.0451 C.ar    1  UNL1        0.0017
     10 C         145.3334  142.8672  164.1782 C.ar    1  UNL1        0.0059
     11 C         143.9922  143.2796  163.6480 C.ar    1  UNL1        0.0313
     12 I         143.5385  144.7031  163.7811 I       1  UNL1       -0.0425
     13 C         143.1047  142.2685  162.9847 C.ar    1  UNL1        0.0207
     14 C         139.4073  138.5796  160.5027 C.3     1  UNL1        0.1123
     15 C         138.2113  138.3908  161.3881 C.3     1  UNL1        0.0939
     16 N         138.3166  138.6642  162.8593 N.3     1  UNL1       -0.2712
     17 C         138.7806  137.5846  163.7914 C.3     1  UNL1        0.0724
     18 C         138.8859  137.8580  165.2625 C.3     1  UNL1        0.0258
     19 C         138.5271  139.2111  165.8014 C.3     1  UNL1        0.0979
     20 C         138.0631  140.2908  164.8693 C.3     1  UNL1        0.0258
     21 C         137.9579  140.0173  163.3982 C.3     1  UNL1        0.0724
     22 C         138.6324  139.4845  167.2726 C.3     1  UNL1        0.3976
     23 F         138.7377  139.7579  168.7436 F       1  UNL1       -0.1701
     24 F         137.5259  138.5060  167.5336 F       1  UNL1       -0.1701
     25 F         139.7389  140.4629  167.0115 F       1  UNL1       -0.1701
@<TRIPOS>BOND
     1     1     2    2
     2     2     3   am
     3     3    14    1
     4    14    15    1
     5    15    16    1
     6    16    17    1
     7    17    18    1
     8    18    19    1
     9    19    22    1
    10    22    23    1
    11    22    24    1
    12    22    25    1
    13    19    20    1
    14    20    21    1
    15     3     4    1
    16     4     5    1
    17     5     6    1
    18     6     7    1
    19     7     8   ar
    20     8     9   ar
    21     9    10   ar
    22    10    11   ar
    23    11    12    1
    24    11    13   ar
    25     6     2   am
    26    13     7   ar
    27    21    16    1
@<TRIPOS>MOLECULE
*****
 25 27 0 0 0
SMALL
GASTEIGER

@<TRIPOS>ATOM
      1 O         137.8920  139.2722  165.7665 O.2     1  UNL1       -0.2520
      2 C         139.2974  138.9436  165.3582 C.2     1  UNL1        0.3111
      3 N         139.7068  138.2227  164.1081 N.am    1  UNL1       -0.2606
      4 C         141.2027  138.1119  164.1056 C.3     1  UNL1        0.1169
      5 C         141.7180  138.7644  165.3541 C.3     1  UNL1        0.1212
      6 N         140.5405  139.2785  166.1283 N.am    1  UNL1       -0.2413
      7 C         140.5961  140.0005  167.4419 C.ar    1  UNL1        0.0558
      8 C         139.4043  139.9936  168.3526 C.ar    1  UNL1        0.0150
      9 C         139.4600  140.7157  169.6662 C.ar    1  UNL1        0.0017
     10 C         140.7075  141.4447  170.0690 C.ar    1  UNL1        0.0059
     11 C         141.8994  141.4516  169.1582 C.ar    1  UNL1        0.0313
     12 I         143.1469  142.1806  169.5610 I       1  UNL1       -0.0425
     13 C         141.8437  140.7295  167.8446 C.ar    1  UNL1        0.0207
     14 C         138.7825  137.7036  163.0469 C.3     1  UNL1        0.1123
     15 C         138.2147  138.6411  162.0228 C.3     1  UNL1        0.0939
     16 N         138.4480  140.1177  162.1466 N.3     1  UNL1       -0.2712
     17 C         139.6994  140.7286  161.5891 C.3     1  UNL1        0.0724
     18 C         139.9327  142.2052  161.7129 C.3     1  UNL1        0.0258
     19 C         138.9145  143.0708  162.3942 C.3     1  UNL1        0.0979
     20 C         137.6631  142.4599  162.9516 C.3     1  UNL1        0.0258
     21 C         137.4299  140.9833  162.8278 C.3     1  UNL1        0.0724
     22 C         139.1478  144.5474  162.5180 C.3     1  UNL1        0.3976
     23 F         139.3812  146.0239  162.6418 F       1  UNL1       -0.1701
     24 F         137.6875  144.7554  162.7899 F       1  UNL1       -0.1701
     25 F         140.6082  144.3394  162.2460 F       1  UNL1       -0.1701
@<TRIPOS>BOND
     1     1     2    2
     2     2     3   am
     3     3    14    1
     4    14    15    1
     5    15    16    1
     6    16    17    1
     7    17    18    1
     8    18    19    1
     9    19    22    1
    10    22    23    1
    11    22    24    1
    12    22    25    1
    13    19    20    1
    14    20    21    1
    15     3     4    1
    16     4     5    1
    17     5     6    1
    18     6     7    1
    19     7     8   ar
    20     8     9   ar
    21     9    10   ar
    22    10    11   ar
    23    11    12    1
    24    11    13   ar
    25     6     2   am
    26    13     7   ar
    27    21    16    1
@<TRIPOS>MOLECULE
*****
 25 27 0 0 0
SMALL
GASTEIGER

@<TRIPOS>ATOM
      1 O         141.1695  140.6288  160.8826 O.2     1  UNL1       -0.2520
      2 C         142.4545  141.2119  161.3916 C.2     1  UNL1        0.3111
      3 N         143.7913  140.5316  161.3944 N.am    1  UNL1       -0.2606
      4 C         144.7912  141.4769  161.9917 C.3     1  UNL1        0.1169
      5 C         144.0723  142.7414  162.3580 C.3     1  UNL1        0.1212
      6 N         142.6281  142.5777  161.9871 N.am    1  UNL1       -0.2413
      7 C         141.5474  143.6001  162.1782 C.ar    1  UNL1        0.0558
      8 C         141.3199  144.6547  161.1361 C.ar    1  UNL1        0.0150
      9 C         140.2391  145.6772  161.3272 C.ar    1  UNL1        0.0017
     10 C         139.3858  145.6450  162.5604 C.ar    1  UNL1        0.0059
     11 C         139.6133  144.5904  163.6025 C.ar    1  UNL1        0.0313
     12 I         138.7601  144.5582  164.8358 I       1  UNL1       -0.0425
     13 C         140.6941  143.5679  163.4115 C.ar    1  UNL1        0.0207
     14 C         144.0780  139.1488  160.8887 C.3     1  UNL1        0.1123
     15 C         143.7556  137.9569  161.7405 C.3     1  UNL1        0.0939
     16 N         142.6018  138.0091  162.6976 N.3     1  UNL1       -0.2712
     17 C         141.2368  137.5758  162.2513 C.3     1  UNL1        0.0724
     18 C         140.0831  137.6281  163.2085 C.3     1  UNL1        0.0258
     19 C         140.2943  138.1135  164.6119 C.3     1  UNL1        0.0979
     20 C         141.6592  138.5468  165.0582 C.3     1  UNL1        0.0258
     21 C         142.8130  138.4946  164.1011 C.3     1  UNL1        0.0724
     22 C         139.1405  138.1657  165.5691 C.3     1  UNL1        0.3976
     23 F         137.9868  138.2179  166.5262 F       1  UNL1       -0.1701
     24 F         139.7750  139.3300  166.2705 F       1  UNL1       -0.1701
     25 F         138.5061  137.0015  164.8677 F       1  UNL1       -0.1701
@<TRIPOS>BOND
     1     1     2    2
     2     2     3   am
     3     3    14    1
     4    14    15    1
     5    15    16    1
     6    16    17    1
     7    17    18    1
     8    18    19    1
     9    19    22    1
    10    22    23    1
    11    22    24    1
    12    22    25    1
    13    19    20    1
    14    20    21    1
    15     3     4    1
    16     4     5    1
    17     5     6    1
    18     6     7    1
    19     7     8   ar
    20     8     9   ar
    21     9    10   ar
    22    10    11   ar
    23    11    12    1
    24    11    13   ar
    25     6     2   am
    26    13     7   ar
    27    21    16    1
@<TRIPOS>MOLECULE
*****
 25 27 0 0 0
SMALL
GASTEIGER

@<TRIPOS>ATOM
      1 O         141.7418  140.6303  162.2818 O.2     1  UNL1       -0.2520
      2 C         143.0534  141.3291  162.4851 C.2     1  UNL1        0.3111
      3 N         143.7366  142.2271  161.4967 N.am    1  UNL1       -0.2606
      4 C         145.0176  142.7055  162.1132 C.3     1  UNL1        0.1169
      5 C         145.1263  142.1031  163.4827 C.3     1  UNL1        0.1212
      6 N         143.9123  141.2524  163.7125 N.am    1  UNL1       -0.2413
      7 C         143.6103  140.4637  164.9521 C.ar    1  UNL1        0.0558
      8 C         143.9887  139.0142  165.0296 C.ar    1  UNL1        0.0150
      9 C         143.6867  138.2255  166.2692 C.ar    1  UNL1        0.0017
     10 C         143.0063  138.8862  167.4313 C.ar    1  UNL1        0.0059
     11 C         142.6279  140.3356  167.3539 C.ar    1  UNL1        0.0313
     12 I         141.9476  140.9963  168.5160 I       1  UNL1       -0.0425
     13 C         142.9299  141.1244  166.1143 C.ar    1  UNL1        0.0207
     14 C         143.2279  142.5840  160.1314 C.3     1  UNL1        0.1123
     15 C         142.1645  143.6306  159.9772 C.3     1  UNL1        0.0939
     16 N         141.1601  143.8460  161.0703 N.3     1  UNL1       -0.2712
     17 C         141.4724  144.7790  162.2026 C.3     1  UNL1        0.0724
     18 C         140.4680  144.9944  163.2956 C.3     1  UNL1        0.0258
     19 C         139.1513  144.2769  163.2564 C.3     1  UNL1        0.0979
     20 C         138.8390  143.3439  162.1242 C.3     1  UNL1        0.0258
     21 C         139.8434  143.1285  161.0311 C.3     1  UNL1        0.0724
     22 C         138.1469  144.4923  164.3495 C.3     1  UNL1        0.3976
     23 F         137.1426  144.7078  165.4426 F       1  UNL1       -0.1701
     24 F         137.1146  143.7588  163.5457 F       1  UNL1       -0.1701
     25 F         139.1792  145.2258  165.1534 F       1  UNL1       -0.1701
@<TRIPOS>BOND
     1     1     2    2
     2     2     3   am
     3     3    14    1
     4    14    15    1
     5    15    16    1
     6    16    17    1
     7    17    18    1
     8    18    19    1
     9    19    22    1
    10    22    23    1
    11    22    24    1
    12    22    25    1
    13    19    20    1
    14    20    21    1
    15     3     4    1
    16     4     5    1
    17     5     6    1
    18     6     7    1
    19     7     8   ar
    20     8     9   ar
    21     9    10   ar
    22    10    11   ar
    23    11    12    1
    24    11    13   ar
    25     6     2   am
    26    13     7   ar
    27    21    16    1
@<TRIPOS>MOLECULE
*****
 25 27 0 0 0
SMALL
GASTEIGER

@<TRIPOS>ATOM
      1 O         142.7954  141.1431  161.7685 O.2     1  UNL1       -0.2520
      2 C         143.4119  142.0114  162.8249 C.2     1  UNL1        0.3111
      3 N         144.5005  141.6067  163.7742 N.am    1  UNL1       -0.2606
      4 C         144.8094  142.7820  164.6535 C.3     1  UNL1        0.1169
      5 C         143.9116  143.9131  164.2478 C.3     1  UNL1        0.1212
      6 N         143.0479  143.4369  163.1176 N.am    1  UNL1       -0.2413
      7 C         142.0035  144.2443  162.4053 C.ar    1  UNL1        0.0558
      8 C         140.9765  145.0034  163.1920 C.ar    1  UNL1        0.0150
      9 C         139.9322  145.8108  162.4797 C.ar    1  UNL1        0.0017
     10 C         139.9149  145.8591  160.9806 C.ar    1  UNL1        0.0059
     11 C         140.9420  145.1001  160.1938 C.ar    1  UNL1        0.0313
     12 I         140.9247  145.1484  158.6947 I       1  UNL1       -0.0425
     13 C         141.9863  144.2926  160.9062 C.ar    1  UNL1        0.0207
     14 C         145.1639  140.2626  163.8336 C.3     1  UNL1        0.1123
     15 C         144.6673  139.2230  164.7941 C.3     1  UNL1        0.0939
     16 N         143.2128  139.1711  165.1572 N.3     1  UNL1       -0.2712
     17 C         142.2507  138.4111  164.2930 C.3     1  UNL1        0.0724
     18 C         140.7963  138.3592  164.6562 C.3     1  UNL1        0.0258
     19 C         140.3040  139.0673  165.8835 C.3     1  UNL1        0.0979
     20 C         141.2660  139.8272  166.7476 C.3     1  UNL1        0.0258
     21 C         142.7205  139.8791  166.3845 C.3     1  UNL1        0.0724
     22 C         138.8495  139.0153  166.2466 C.3     1  UNL1        0.3976
     23 F         137.3950  138.9633  166.6097 F       1  UNL1       -0.1701
     24 F         139.0328  140.1983  167.1504 F       1  UNL1       -0.1701
     25 F         138.6661  137.8324  165.3428 F       1  UNL1       -0.1701
@<TRIPOS>BOND
     1     1     2    2
     2     2     3   am
     3     3    14    1
     4    14    15    1
     5    15    16    1
     6    16    17    1
     7    17    18    1
     8    18    19    1
     9    19    22    1
    10    22    23    1
    11    22    24    1
    12    22    25    1
    13    19    20    1
    14    20    21    1
    15     3     4    1
    16     4     5    1
    17     5     6    1
    18     6     7    1
    19     7     8   ar
    20     8     9   ar
    21     9    10   ar
    22    10    11   ar
    23    11    12    1
    24    11    13   ar
    25     6     2   am
    26    13     7   ar
    27    21    16    1
@<TRIPOS>MOLECULE
*****
 25 27 0 0 0
SMALL
GASTEIGER

@<TRIPOS>ATOM
      1 O         142.6453  138.4323  165.9447 O.2     1  UNL1       -0.2520
      2 C         141.2598  138.7257  165.4504 C.2     1  UNL1        0.3111
      3 N         140.6878  138.3060  164.1288 N.am    1  UNL1       -0.2606
      4 C         139.2776  138.8113  164.0526 C.3     1  UNL1        0.1169
      5 C         138.9779  139.5433  165.3271 C.3     1  UNL1        0.1212
      6 N         140.2030  139.4905  166.1911 N.am    1  UNL1       -0.2413
      7 C         140.3462  140.0959  167.5559 C.ar    1  UNL1        0.0558
      8 C         139.2285  139.9786  168.5495 C.ar    1  UNL1        0.0150
      9 C         139.3717  140.5841  169.9143 C.ar    1  UNL1        0.0017
     10 C         140.6325  141.3069  170.2856 C.ar    1  UNL1        0.0059
     11 C         141.7502  141.4242  169.2921 C.ar    1  UNL1        0.0313
     12 I         143.0110  142.1470  169.6634 I       1  UNL1       -0.0425
     13 C         141.6070  140.8188  167.9272 C.ar    1  UNL1        0.0207
     14 C         141.4010  137.5191  163.0694 C.3     1  UNL1        0.1123
     15 C         142.5318  138.1422  162.3059 C.3     1  UNL1        0.0939
     16 N         142.8387  139.6005  162.4770 N.3     1  UNL1       -0.2712
     17 C         141.9103  140.6338  161.9110 C.3     1  UNL1        0.0724
     18 C         142.2172  142.0920  162.0822 C.3     1  UNL1        0.0258
     19 C         143.4525  142.5170  162.8193 C.3     1  UNL1        0.0979
     20 C         144.3809  141.4837  163.3853 C.3     1  UNL1        0.0258
     21 C         144.0740  140.0255  163.2142 C.3     1  UNL1        0.0724
     22 C         143.7595  143.9753  162.9904 C.3     1  UNL1        0.3976
     23 F         144.0664  145.4335  163.1615 F       1  UNL1       -0.1701
     24 F         142.6575  144.0886  164.0018 F       1  UNL1       -0.1701
     25 F         144.8614  143.8620  161.9791 F       1  UNL1       -0.1701
@<TRIPOS>BOND
     1     1     2    2
     2     2     3   am
     3     3    14    1
     4    14    15    1
     5    15    16    1
     6    16    17    1
     7    17    18    1
     8    18    19    1
     9    19    22    1
    10    22    23    1
    11    22    24    1
    12    22    25    1
    13    19    20    1
    14    20    21    1
    15     3     4    1
    16     4     5    1
    17     5     6    1
    18     6     7    1
    19     7     8   ar
    20     8     9   ar
    21     9    10   ar
    22    10    11   ar
    23    11    12    1
    24    11    13   ar
    25     6     2   am
    26    13     7   ar
    27    21    16    1
