@<TRIPOS>MOLECULE
*****
 28 29 0 0 0
SMALL
GASTEIGER

@<TRIPOS>ATOM
      1 C         138.0044  141.0472  163.5147 C.ar    1  UNL1        0.0210
      2 C         138.3154  141.0293  164.9820 C.ar    1  UNL1       -0.0009
      3 C         138.7727  139.7593  165.6363 C.ar    1  UNL1        0.0252
      4 C         138.9189  138.5073  164.8233 C.ar    1  UNL1        0.1401
      5 F         139.3762  137.2373  165.4775 F       1  UNL1       -0.2044
      6 C         138.6079  138.5252  163.3560 C.ar    1  UNL1        0.0587
      7 C         138.1507  139.7952  162.7017 C.ar    1  UNL1        0.1397
      8 F         137.8397  139.8132  161.2344 F       1  UNL1       -0.2044
      9 C         139.0837  139.7414  167.1036 C.3     1  UNL1        0.1080
     10 C         137.7726  139.0127  167.1063 C.3     1  UNL1        0.0291
     11 C         140.2868  140.4763  166.5913 C.3     1  UNL1        0.0388
     12 C         141.3455  140.9402  167.5472 C.3     1  UNL1        0.0671
     13 S         141.2012  140.6693  169.0154 S.3     1  UNL1       -0.0807
     14 C         139.9981  139.9343  169.5277 C.2     1  UNL1        0.1482
     15 N         139.8538  139.6633  170.9960 N.pl3   1  UNL1       -0.3380
     16 N         138.9394  139.4704  168.5718 N.2     1  UNL1       -0.2509
     17 H         140.5487  139.9678  171.6234 H       1  UNL1        0.1442
     18 H         139.0642  139.1810  171.3322 H       1  UNL1        0.1442
     19 C         137.5471  142.3172  162.8605 C.3     1  UNL1        0.0980
     20 N         137.6902  143.6254  163.5803 N.3     1  UNL1       -0.2892
     21 H         137.0143  144.2659  163.1641 H       1  UNL1        0.1237
     22 C         138.8408  144.6340  165.0496 C.3     1  UNL1        0.0245
     23 C         139.0112  144.3359  163.5895 C.3     1  UNL1        0.1307
     24 C         139.1817  144.0377  162.1293 C.3     1  UNL1        0.0245
     25 C         140.3323  145.0463  163.5987 C.3     1  UNL1        0.4088
     26 F         141.6533  145.7568  163.6078 F       1  UNL1       -0.1686
     27 F         140.8226  144.1208  164.6725 F       1  UNL1       -0.1686
     28 F         139.8420  145.9718  162.5249 F       1  UNL1       -0.1686
@<TRIPOS>BOND
     1    22    23    1
     2    23    24    1
     3    23    20    1
     4    20    19    1
     5    19     1    1
     6     1     2   ar
     7     2     3   ar
     8     3     9    1
     9     9    10    1
    10     9    11    1
    11    11    12    1
    12    12    13    1
    13    13    14    1
    14    14    15    1
    15    14    16    2
    16     3     4   ar
    17     4     5    1
    18     4     6   ar
    19     6     7   ar
    20     7     8    1
    21    23    25    1
    22    25    26    1
    23    25    27    1
    24    25    28    1
    25     7     1   ar
    26    16     9    1
    27    20    21    1
    28    15    17    1
    29    15    18    1
@<TRIPOS>MOLECULE
*****
 28 29 0 0 0
SMALL
GASTEIGER

@<TRIPOS>ATOM
      1 C         142.8162  139.6653  167.1750 C.ar    1  UNL1        0.0210
      2 C         142.3741  140.9541  166.5477 C.ar    1  UNL1       -0.0009
      3 C         142.6420  141.2116  165.0945 C.ar    1  UNL1        0.0252
      4 C         143.3520  140.1803  164.2685 C.ar    1  UNL1        0.1401
      5 F         143.6199  140.4378  162.8152 F       1  UNL1       -0.2044
      6 C         143.7941  138.8915  164.8958 C.ar    1  UNL1        0.0587
      7 C         143.5262  138.6340  166.3490 C.ar    1  UNL1        0.1397
      8 F         143.9683  137.3452  166.9763 F       1  UNL1       -0.2044
      9 C         142.1999  142.5005  164.4672 C.3     1  UNL1        0.1080
     10 C         140.9421  141.6960  164.3236 C.3     1  UNL1        0.0291
     11 C         143.6113  142.8574  164.8287 C.3     1  UNL1        0.0388
     12 C         144.1437  144.2237  164.5131 C.3     1  UNL1        0.0671
     13 S         143.2648  145.2332  163.8359 S.3     1  UNL1       -0.0807
     14 C         141.8534  144.8763  163.4744 C.2     1  UNL1        0.1482
     15 N         140.9745  145.8857  162.7973 N.pl3   1  UNL1       -0.3380
     16 N         141.3210  143.5100  163.7901 N.2     1  UNL1       -0.2509
     17 H         141.3240  146.7825  162.5901 H       1  UNL1        0.1442
     18 H         140.0482  145.6515  162.5600 H       1  UNL1        0.1442
     19 C         142.5483  139.4079  168.6282 C.3     1  UNL1        0.0980
     20 N         143.0653  140.3592  169.6662 N.3     1  UNL1       -0.2892
     21 H         142.9819  139.8867  170.5663 H       1  UNL1        0.1237
     22 C         141.0991  141.0609  170.0427 C.3     1  UNL1        0.0245
     23 C         142.4338  141.7104  169.8263 C.3     1  UNL1        0.1307
     24 C         143.7685  142.3598  169.6098 C.3     1  UNL1        0.0245
     25 C         141.8023  143.0615  169.9863 C.3     1  UNL1        0.4088
     26 F         141.1708  144.4126  170.1463 F       1  UNL1       -0.1686
     27 F         140.5874  142.5810  169.2492 F       1  UNL1       -0.1686
     28 F         143.0171  143.5420  170.7233 F       1  UNL1       -0.1686
@<TRIPOS>BOND
     1    22    23    1
     2    23    24    1
     3    23    20    1
     4    20    19    1
     5    19     1    1
     6     1     2   ar
     7     2     3   ar
     8     3     9    1
     9     9    10    1
    10     9    11    1
    11    11    12    1
    12    12    13    1
    13    13    14    1
    14    14    15    1
    15    14    16    2
    16     3     4   ar
    17     4     5    1
    18     4     6   ar
    19     6     7   ar
    20     7     8    1
    21    23    25    1
    22    25    26    1
    23    25    27    1
    24    25    28    1
    25     7     1   ar
    26    16     9    1
    27    20    21    1
    28    15    17    1
    29    15    18    1
@<TRIPOS>MOLECULE
*****
 28 29 0 0 0
SMALL
GASTEIGER

@<TRIPOS>ATOM
      1 C         139.4862  140.2367  165.1345 C.ar    1  UNL1        0.0210
      2 C         140.0375  141.0621  166.2591 C.ar    1  UNL1       -0.0009
      3 C         141.2887  140.6289  166.9640 C.ar    1  UNL1        0.0252
      4 C         141.9885  139.3703  166.5443 C.ar    1  UNL1        0.1401
      5 F         143.2397  138.9371  167.2492 F       1  UNL1       -0.2044
      6 C         141.4372  138.5449  165.4197 C.ar    1  UNL1        0.0587
      7 C         140.1860  138.9781  164.7148 C.ar    1  UNL1        0.1397
      8 F         139.6347  138.1527  163.5901 F       1  UNL1       -0.2044
      9 C         141.8400  141.4543  168.0886 C.3     1  UNL1        0.1080
     10 C         142.5804  142.0604  166.9335 C.3     1  UNL1        0.0291
     11 C         140.9082  140.5615  168.8533 C.3     1  UNL1        0.0388
     12 C         140.7847  140.7047  170.3413 C.3     1  UNL1        0.0671
     13 S         141.5931  141.7405  171.0647 S.3     1  UNL1       -0.0807
     14 C         142.5250  142.6333  170.3001 C.2     1  UNL1        0.1482
     15 N         143.3334  143.6692  171.0235 N.pl3   1  UNL1       -0.3380
     16 N         142.6485  142.4902  168.8121 N.2     1  UNL1       -0.2509
     17 H         143.2524  143.7631  172.0002 H       1  UNL1        0.1442
     18 H         143.9451  144.2551  170.5217 H       1  UNL1        0.1442
     19 C         138.2350  140.6699  164.4296 C.3     1  UNL1        0.0980
     20 N         137.6499  142.0235  164.7040 N.3     1  UNL1       -0.2892
     21 H         136.6378  141.9297  164.6184 H       1  UNL1        0.1237
     22 C         138.3263  143.9945  165.1011 C.3     1  UNL1        0.0245
     23 C         138.0488  143.1981  163.8606 C.3     1  UNL1        0.1307
     24 C         137.7712  142.4016  162.6202 C.3     1  UNL1        0.0245
     25 C         138.4476  144.3726  163.0172 C.3     1  UNL1        0.4088
     26 F         138.8465  145.5472  162.1738 F       1  UNL1       -0.1686
     27 F         138.7879  145.1467  164.2562 F       1  UNL1       -0.1686
     28 F         138.1073  143.5985  161.7783 F       1  UNL1       -0.1686
@<TRIPOS>BOND
     1    22    23    1
     2    23    24    1
     3    23    20    1
     4    20    19    1
     5    19     1    1
     6     1     2   ar
     7     2     3   ar
     8     3     9    1
     9     9    10    1
    10     9    11    1
    11    11    12    1
    12    12    13    1
    13    13    14    1
    14    14    15    1
    15    14    16    2
    16     3     4   ar
    17     4     5    1
    18     4     6   ar
    19     6     7   ar
    20     7     8    1
    21    23    25    1
    22    25    26    1
    23    25    27    1
    24    25    28    1
    25     7     1   ar
    26    16     9    1
    27    20    21    1
    28    15    17    1
    29    15    18    1
@<TRIPOS>MOLECULE
*****
 28 29 0 0 0
SMALL
GASTEIGER

@<TRIPOS>ATOM
      1 C         142.8296  139.7574  167.0469 C.ar    1  UNL1        0.0210
      2 C         142.3481  141.0407  166.4376 C.ar    1  UNL1       -0.0009
      3 C         142.6593  141.3534  165.0040 C.ar    1  UNL1        0.0252
      4 C         143.4519  140.3828  164.1796 C.ar    1  UNL1        0.1401
      5 F         143.7630  140.6955  162.7459 F       1  UNL1       -0.2044
      6 C         143.9334  139.0995  164.7889 C.ar    1  UNL1        0.0587
      7 C         143.6222  138.7868  166.2225 C.ar    1  UNL1        0.1397
      8 F         144.1038  137.5035  166.8318 F       1  UNL1       -0.2044
      9 C         142.1777  142.6368  164.3947 C.3     1  UNL1        0.1080
     10 C         143.5178  143.0773  164.9045 C.3     1  UNL1        0.0291
     11 C         141.0048  141.7506  164.0964 C.3     1  UNL1        0.0388
     12 C         139.8158  142.3007  163.3660 C.3     1  UNL1        0.0671
     13 S         139.7996  143.7370  162.9338 S.3     1  UNL1       -0.0807
     14 C         140.9726  144.6232  163.2320 C.2     1  UNL1        0.1482
     15 N         140.9564  146.0594  162.7998 N.pl3   1  UNL1       -0.3380
     16 N         142.1616  144.0731  163.9625 N.2     1  UNL1       -0.2509
     17 H         140.1760  146.4205  162.3204 H       1  UNL1        0.1442
     18 H         141.7262  146.6411  162.9956 H       1  UNL1        0.1442
     19 C         142.5185  139.4447  168.4806 C.3     1  UNL1        0.0980
     20 N         142.9987  140.3585  169.5688 N.3     1  UNL1       -0.2892
     21 H         142.8805  139.8562  170.4486 H       1  UNL1        0.1237
     22 C         143.7047  142.3589  169.5815 C.3     1  UNL1        0.0245
     23 C         142.3650  141.7058  169.7509 C.3     1  UNL1        0.1307
     24 C         141.0253  141.0528  169.9203 C.3     1  UNL1        0.0245
     25 C         141.7313  143.0532  169.9330 C.3     1  UNL1        0.4088
     26 F         141.0976  144.4005  170.1151 F       1  UNL1       -0.1686
     27 F         142.9496  143.5267  170.6688 F       1  UNL1       -0.1686
     28 F         140.5130  142.5796  169.1972 F       1  UNL1       -0.1686
@<TRIPOS>BOND
     1    22    23    1
     2    23    24    1
     3    23    20    1
     4    20    19    1
     5    19     1    1
     6     1     2   ar
     7     2     3   ar
     8     3     9    1
     9     9    10    1
    10     9    11    1
    11    11    12    1
    12    12    13    1
    13    13    14    1
    14    14    15    1
    15    14    16    2
    16     3     4   ar
    17     4     5    1
    18     4     6   ar
    19     6     7   ar
    20     7     8    1
    21    23    25    1
    22    25    26    1
    23    25    27    1
    24    25    28    1
    25     7     1   ar
    26    16     9    1
    27    20    21    1
    28    15    17    1
    29    15    18    1
@<TRIPOS>MOLECULE
*****
 28 29 0 0 0
SMALL
GASTEIGER

@<TRIPOS>ATOM
      1 C         141.3013  139.5755  168.1019 C.ar    1  UNL1        0.0210
      2 C         142.1470  139.3185  166.8899 C.ar    1  UNL1       -0.0009
      3 C         141.5403  139.4019  165.5206 C.ar    1  UNL1        0.0252
      4 C         140.0880  139.7423  165.3632 C.ar    1  UNL1        0.1401
      5 F         139.4813  139.8258  163.9939 F       1  UNL1       -0.2044
      6 C         139.2423  139.9993  166.5752 C.ar    1  UNL1        0.0587
      7 C         139.8490  139.9159  167.9445 C.ar    1  UNL1        0.1397
      8 F         139.0032  140.1729  169.1564 F       1  UNL1       -0.2044
      9 C         142.3860  139.1449  164.3087 C.3     1  UNL1        0.1080
     10 C         141.8035  137.7781  164.5144 C.3     1  UNL1        0.0291
     11 C         142.6748  140.6011  164.5239 C.3     1  UNL1        0.0388
     12 C         143.6070  141.3255  163.5986 C.3     1  UNL1        0.0671
     13 S         144.2504  140.5939  162.4582 S.3     1  UNL1       -0.0807
     14 C         143.9617  139.1377  162.2430 C.2     1  UNL1        0.1482
     15 N         144.6051  138.4061  161.1025 N.pl3   1  UNL1       -0.3380
     16 N         143.0295  138.4133  163.1682 N.2     1  UNL1       -0.2509
     17 H         145.2169  138.8816  160.4952 H       1  UNL1        0.1442
     18 H         144.4156  137.4504  160.9613 H       1  UNL1        0.1442
     19 C         141.9080  139.4921  169.4712 C.3     1  UNL1        0.0980
     20 N         142.6705  140.6585  170.0260 N.3     1  UNL1       -0.2892
     21 H         142.8955  140.4296  170.9942 H       1  UNL1        0.1237
     22 C         141.1350  141.5990  171.1474 C.3     1  UNL1        0.0245
     23 C         142.0494  142.0238  170.0369 C.3     1  UNL1        0.1307
     24 C         142.9639  142.4487  168.9264 C.3     1  UNL1        0.0245
     25 C         141.4283  143.3892  170.0478 C.3     1  UNL1        0.4088
     26 F         140.8072  144.7545  170.0587 F       1  UNL1       -0.1686
     27 F         142.6865  143.9568  170.6351 F       1  UNL1       -0.1686
     28 F         140.1702  142.8215  169.4605 F       1  UNL1       -0.1686
@<TRIPOS>BOND
     1    22    23    1
     2    23    24    1
     3    23    20    1
     4    20    19    1
     5    19     1    1
     6     1     2   ar
     7     2     3   ar
     8     3     9    1
     9     9    10    1
    10     9    11    1
    11    11    12    1
    12    12    13    1
    13    13    14    1
    14    14    15    1
    15    14    16    2
    16     3     4   ar
    17     4     5    1
    18     4     6   ar
    19     6     7   ar
    20     7     8    1
    21    23    25    1
    22    25    26    1
    23    25    27    1
    24    25    28    1
    25     7     1   ar
    26    16     9    1
    27    20    21    1
    28    15    17    1
    29    15    18    1
@<TRIPOS>MOLECULE
*****
 28 29 0 0 0
SMALL
GASTEIGER

@<TRIPOS>ATOM
      1 C         139.5837  140.2950  167.4719 C.ar    1  UNL1        0.0210
      2 C         140.4111  141.2354  166.6467 C.ar    1  UNL1       -0.0009
      3 C         140.1456  141.3757  165.1770 C.ar    1  UNL1        0.0252
      4 C         139.0527  140.5757  164.5326 C.ar    1  UNL1        0.1401
      5 F         138.7872  140.7161  163.0630 F       1  UNL1       -0.2044
      6 C         138.2252  139.6354  165.3578 C.ar    1  UNL1        0.0587
      7 C         138.4907  139.4950  166.8274 C.ar    1  UNL1        0.1397
      8 F         137.6632  138.5546  167.6526 F       1  UNL1       -0.2044
      9 C         140.9732  142.3162  164.3518 C.3     1  UNL1        0.1080
     10 C         141.7819  141.0613  164.2062 C.3     1  UNL1        0.0291
     11 C         139.8770  143.2445  164.7841 C.3     1  UNL1        0.0388
     12 C         139.8892  144.6773  164.3406 C.3     1  UNL1        0.0671
     13 S         140.9976  145.1820  163.4649 S.3     1  UNL1       -0.0807
     14 C         142.0937  144.2536  163.0326 C.2     1  UNL1        0.1482
     15 N         143.2021  144.7583  162.1569 N.pl3   1  UNL1       -0.3380
     16 N         142.0815  142.8208  163.4761 N.2     1  UNL1       -0.2509
     17 H         143.2101  145.6987  161.8658 H       1  UNL1        0.1442
     18 H         143.9215  144.1490  161.8732 H       1  UNL1        0.1442
     19 C         139.8492  140.1547  168.9415 C.3     1  UNL1        0.0980
     20 N         140.1818  141.3652  169.7625 N.3     1  UNL1       -0.2892
     21 H         139.6561  142.1438  169.3654 H       1  UNL1        0.1237
     22 C         141.1699  143.2399  169.6665 C.3     1  UNL1        0.0245
     23 C         141.6057  141.8211  169.8836 C.3     1  UNL1        0.1307
     24 C         142.0415  140.4023  170.1007 C.3     1  UNL1        0.0245
     25 C         143.0296  142.2770  170.0048 C.3     1  UNL1        0.4088
     26 F         144.4535  142.7330  170.1259 F       1  UNL1       -0.1686
     27 F         142.5584  143.6320  170.4431 F       1  UNL1       -0.1686
     28 F         143.5007  140.9221  169.5664 F       1  UNL1       -0.1686
@<TRIPOS>BOND
     1    22    23    1
     2    23    24    1
     3    23    20    1
     4    20    19    1
     5    19     1    1
     6     1     2   ar
     7     2     3   ar
     8     3     9    1
     9     9    10    1
    10     9    11    1
    11    11    12    1
    12    12    13    1
    13    13    14    1
    14    14    15    1
    15    14    16    2
    16     3     4   ar
    17     4     5    1
    18     4     6   ar
    19     6     7   ar
    20     7     8    1
    21    23    25    1
    22    25    26    1
    23    25    27    1
    24    25    28    1
    25     7     1   ar
    26    16     9    1
    27    20    21    1
    28    15    17    1
    29    15    18    1
@<TRIPOS>MOLECULE
*****
 28 29 0 0 0
SMALL
GASTEIGER

@<TRIPOS>ATOM
      1 C         142.2589  139.5216  167.0707 C.ar    1  UNL1        0.0210
      2 C         141.2692  140.4487  166.4298 C.ar    1  UNL1       -0.0009
      3 C         141.2256  140.5834  164.9365 C.ar    1  UNL1        0.0252
      4 C         142.1717  139.7909  164.0841 C.ar    1  UNL1        0.1401
      5 F         142.1281  139.9255  162.5908 F       1  UNL1       -0.2044
      6 C         143.1615  138.8638  164.7250 C.ar    1  UNL1        0.0587
      7 C         143.2051  138.7291  166.2183 C.ar    1  UNL1        0.1397
      8 F         144.1949  137.8019  166.8591 F       1  UNL1       -0.2044
      9 C         140.2357  141.5106  164.2957 C.3     1  UNL1        0.1080
     10 C         141.3524  142.4729  164.5728 C.3     1  UNL1        0.0291
     11 C         139.4627  140.2262  164.2411 C.3     1  UNL1        0.0388
     12 C         138.0878  140.2032  163.6420 C.3     1  UNL1        0.0671
     13 S         137.4858  141.4645  163.0974 S.3     1  UNL1       -0.0807
     14 C         138.2588  142.7489  163.1519 C.2     1  UNL1        0.1482
     15 N         137.6568  144.0102  162.6073 N.pl3   1  UNL1       -0.3380
     16 N         139.6337  142.7719  163.7511 N.2     1  UNL1       -0.2509
     17 H         136.7543  143.9951  162.2141 H       1  UNL1        0.1442
     18 H         138.1641  144.8532  162.6431 H       1  UNL1        0.1442
     19 C         142.3025  139.3870  168.5640 C.3     1  UNL1        0.0980
     20 N         142.9723  140.4425  169.3930 N.3     1  UNL1       -0.2892
     21 H         143.1276  140.0374  170.3161 H       1  UNL1        0.1237
     22 C         143.4688  142.4627  168.9778 C.3     1  UNL1        0.0245
     23 C         142.2997  141.7659  169.6084 C.3     1  UNL1        0.1307
     24 C         141.1307  141.0690  170.2391 C.3     1  UNL1        0.0245
     25 C         141.6272  143.0892  169.8239 C.3     1  UNL1        0.4088
     26 F         140.9546  144.4126  170.0393 F       1  UNL1       -0.1686
     27 F         142.8444  143.5907  170.5429 F       1  UNL1       -0.1686
     28 F         140.4100  142.5877  169.1049 F       1  UNL1       -0.1686
@<TRIPOS>BOND
     1    22    23    1
     2    23    24    1
     3    23    20    1
     4    20    19    1
     5    19     1    1
     6     1     2   ar
     7     2     3   ar
     8     3     9    1
     9     9    10    1
    10     9    11    1
    11    11    12    1
    12    12    13    1
    13    13    14    1
    14    14    15    1
    15    14    16    2
    16     3     4   ar
    17     4     5    1
    18     4     6   ar
    19     6     7   ar
    20     7     8    1
    21    23    25    1
    22    25    26    1
    23    25    27    1
    24    25    28    1
    25     7     1   ar
    26    16     9    1
    27    20    21    1
    28    15    17    1
    29    15    18    1
@<TRIPOS>MOLECULE
*****
 28 29 0 0 0
SMALL
GASTEIGER

@<TRIPOS>ATOM
      1 C         139.6923  142.1212  164.9194 C.ar    1  UNL1        0.0210
      2 C         140.2231  141.5232  166.1884 C.ar    1  UNL1       -0.0009
      3 C         141.6405  141.7832  166.6047 C.ar    1  UNL1        0.0252
      4 C         142.5272  142.6414  165.7518 C.ar    1  UNL1        0.1401
      5 F         143.9446  142.9015  166.1680 F       1  UNL1       -0.2044
      6 C         141.9964  143.2395  164.4828 C.ar    1  UNL1        0.0587
      7 C         140.5789  142.9794  164.0666 C.ar    1  UNL1        0.1397
      8 F         140.0481  143.5775  162.7975 F       1  UNL1       -0.2044
      9 C         142.1713  141.1851  167.8738 C.3     1  UNL1        0.1080
     10 C         142.6307  140.1528  166.8873 C.3     1  UNL1        0.0291
     11 C         141.5275  142.4252  168.4196 C.3     1  UNL1        0.0388
     12 C         141.5741  142.7086  169.8918 C.3     1  UNL1        0.0671
     13 S         142.2644  141.7520  170.8183 S.3     1  UNL1       -0.0807
     14 C         142.9081  140.5119  170.2725 C.2     1  UNL1        0.1482
     15 N         143.5984  139.5553  171.1990 N.pl3   1  UNL1       -0.3380
     16 N         142.8616  140.2285  168.8003 N.2     1  UNL1       -0.2509
     17 H         143.6290  139.7414  172.1652 H       1  UNL1        0.1442
     18 H         144.0209  138.7415  170.8408 H       1  UNL1        0.1442
     19 C         138.2748  141.8612  164.5032 C.3     1  UNL1        0.0980
     20 N         137.7686  140.4527  164.4045 N.3     1  UNL1       -0.2892
     21 H         137.9867  139.9985  165.2914 H       1  UNL1        0.1237
     22 C         138.7592  138.5775  164.3544 C.3     1  UNL1        0.0245
     23 C         138.2736  139.5485  163.3194 C.3     1  UNL1        0.1307
     24 C         137.7881  140.5195  162.2843 C.3     1  UNL1        0.0245
     25 C         138.7786  138.6443  162.2343 C.3     1  UNL1        0.4088
     26 F         139.2836  137.7401  161.1492 F       1  UNL1       -0.1686
     27 F         140.1875  139.0482  162.5534 F       1  UNL1       -0.1686
     28 F         137.3697  138.2404  161.9151 F       1  UNL1       -0.1686
@<TRIPOS>BOND
     1    22    23    1
     2    23    24    1
     3    23    20    1
     4    20    19    1
     5    19     1    1
     6     1     2   ar
     7     2     3   ar
     8     3     9    1
     9     9    10    1
    10     9    11    1
    11    11    12    1
    12    12    13    1
    13    13    14    1
    14    14    15    1
    15    14    16    2
    16     3     4   ar
    17     4     5    1
    18     4     6   ar
    19     6     7   ar
    20     7     8    1
    21    23    25    1
    22    25    26    1
    23    25    27    1
    24    25    28    1
    25     7     1   ar
    26    16     9    1
    27    20    21    1
    28    15    17    1
    29    15    18    1
@<TRIPOS>MOLECULE
*****
 28 29 0 0 0
SMALL
GASTEIGER

@<TRIPOS>ATOM
      1 C         139.0827  142.9406  164.5204 C.ar    1  UNL1        0.0210
      2 C         140.1776  143.0895  165.5348 C.ar    1  UNL1       -0.0009
      3 C         140.4438  141.9885  166.5181 C.ar    1  UNL1        0.0252
      4 C         139.6150  140.7386  166.4871 C.ar    1  UNL1        0.1401
      5 F         139.8812  139.6376  167.4704 F       1  UNL1       -0.2044
      6 C         138.5201  140.5897  165.4727 C.ar    1  UNL1        0.0587
      7 C         138.2540  141.6907  164.4894 C.ar    1  UNL1        0.1397
      8 F         137.1590  141.5418  163.4750 F       1  UNL1       -0.2044
      9 C         141.5387  142.1374  167.5325 C.3     1  UNL1        0.1080
     10 C         142.3140  141.5337  166.3992 C.3     1  UNL1        0.0291
     11 C         140.3832  142.6894  168.3136 C.3     1  UNL1        0.0388
     12 C         140.5918  143.1806  169.7154 C.3     1  UNL1        0.0671
     13 S         141.9560  143.1199  170.3362 S.3     1  UNL1       -0.0807
     14 C         143.1115  142.5679  169.5551 C.2     1  UNL1        0.1482
     15 N         144.4757  142.5072  170.1759 N.pl3   1  UNL1       -0.3380
     16 N         142.9029  142.0767  168.1533 N.2     1  UNL1       -0.2509
     17 H         144.6126  142.8296  171.0960 H       1  UNL1        0.1442
     18 H         145.2341  142.1449  169.6633 H       1  UNL1        0.1442
     19 C         138.8165  144.0416  163.5371 C.3     1  UNL1        0.0980
     20 N         139.6950  144.1991  162.3316 N.3     1  UNL1       -0.2892
     21 H         139.6200  143.3334  161.7974 H       1  UNL1        0.1237
     22 C         140.8367  145.8322  163.0592 C.3     1  UNL1        0.0245
     23 C         141.1591  144.4775  162.5017 C.3     1  UNL1        0.1307
     24 C         141.4814  143.1228  161.9441 C.3     1  UNL1        0.0245
     25 C         142.6232  144.7558  162.6718 C.3     1  UNL1        0.4088
     26 F         144.0873  145.0342  162.8419 F       1  UNL1       -0.1686
     27 F         142.3338  145.5033  163.9397 F       1  UNL1       -0.1686
     28 F         142.9126  144.0084  161.4039 F       1  UNL1       -0.1686
@<TRIPOS>BOND
     1    22    23    1
     2    23    24    1
     3    23    20    1
     4    20    19    1
     5    19     1    1
     6     1     2   ar
     7     2     3   ar
     8     3     9    1
     9     9    10    1
    10     9    11    1
    11    11    12    1
    12    12    13    1
    13    13    14    1
    14    14    15    1
    15    14    16    2
    16     3     4   ar
    17     4     5    1
    18     4     6   ar
    19     6     7   ar
    20     7     8    1
    21    23    25    1
    22    25    26    1
    23    25    27    1
    24    25    28    1
    25     7     1   ar
    26    16     9    1
    27    20    21    1
    28    15    17    1
    29    15    18    1
