@<TRIPOS>MOLECULE
*****
 44 50 0 0 0
SMALL
GASTEIGER

@<TRIPOS>ATOM
      1 C         142.7300  139.0684  158.7700 C.3     1  UNL1        0.1354
      2 N         142.1958  137.8191  158.1345 N.3     1  UNL1       -0.2823
      3 C         142.6575  137.4181  156.7648 C.3     1  UNL1        0.1166
      4 C         143.6532  138.2663  156.0306 C.3     1  UNL1        0.0511
      5 C         144.1874  139.5156  156.6662 C.2     1  UNL1       -0.0038
      6 C         143.7257  139.9166  158.0359 C.2     1  UNL1        0.0768
      7 N         144.4232  141.1923  158.4050 N.2     1  UNL1       -0.2520
      8 C         145.3158  141.5797  157.2635 C.2     1  UNL1        0.0627
      9 C         146.2425  142.7422  157.0637 C.3     1  UNL1        0.0717
     10 C         147.0234  142.8683  155.7893 C.2     1  UNL1       -0.0198
     11 C         146.8777  141.8321  154.7146 C.2     1  UNL1       -0.0042
     12 C         145.9510  140.6696  154.9144 C.2     1  UNL1        0.0006
     13 C         145.1701  140.5434  156.1888 C.2     1  UNL1        0.0111
     14 H         141.1825  137.9242  158.0846 H       1  UNL1        0.1245
     15 C         143.3724  142.3254  161.8079 C.ar    1  UNL1        0.0947
     16 C         142.2589  142.4402  160.8094 C.ar    1  UNL1        0.0093
     17 C         142.0447  141.3544  159.7968 C.ar    1  UNL1        0.0169
     18 C         142.9442  140.1541  159.7827 C.ar    1  UNL1        0.0810
     19 N         144.0576  140.0394  160.7811 N.ar    1  UNL1       -0.2460
     20 C         144.2718  141.1251  161.7938 C.ar    1  UNL1        0.1049
     21 C         143.5866  143.4112  162.8205 C.2     1  UNL1        0.3427
     22 O         144.4203  144.6083  162.4717 O.2     1  UNL1       -0.2448
     23 O         142.9670  143.2996  164.1821 O.3     1  UNL1       -0.4454
     24 C         141.0469  144.9211  163.5235 C.3     1  UNL1        0.0513
     25 C         141.6001  143.8640  164.4326 C.3     1  UNL1        0.2089
     26 C         141.8086  138.5972  159.8558 C.ar    1  UNL1        0.0407
     27 C         142.2073  137.8180  161.0740 C.ar    1  UNL1        0.1193
     28 N         140.9718  137.5617  161.8852 N.ar    1  UNL1       -0.1679
     29 N         139.8096  138.1825  161.1684 N.ar    1  UNL1       -0.2476
     30 C         138.3811  138.1663  161.6255 C.3     1  UNL1        0.1537
     31 C         140.3268  138.8225  159.9142 C.ar    1  UNL1        0.0944
     32 C         142.1233  136.1687  156.1291 C.ar    1  UNL1        0.1318
     33 N         142.5161  134.7641  156.4794 N.ar    1  UNL1       -0.2298
     34 C         141.7382  133.8320  155.5984 C.ar    1  UNL1        0.0996
     35 C         140.8647  134.6606  154.7038 C.ar    1  UNL1        0.0927
     36 N         141.1027  136.1048  155.0318 N.ar    1  UNL1       -0.3386
     37 H         140.6658  136.8754  154.6022 H       1  UNL1        0.1672
     38 C         141.8195  132.3342  155.6102 C.ar    1  UNL1        0.0193
     39 C         140.8763  131.5253  154.7699 C.ar    1  UNL1        0.0039
     40 C         140.9576  130.0276  154.7816 C.ar    1  UNL1        0.0297
     41 C         141.9821  129.3387  155.6335 C.ar    1  UNL1        0.1401
     42 F         142.0635  127.8409  155.6452 F       1  UNL1       -0.2042
     43 C         142.9253  130.1476  156.4738 C.ar    1  UNL1        0.0297
     44 C         142.8440  131.6454  156.4621 C.ar    1  UNL1        0.0039
@<TRIPOS>BOND
     1    24    25    1
     2    25    23    1
     3    23    21    1
     4    21    22    2
     5    21    15    1
     6    15    16   ar
     7    16    17   ar
     8    17    18   ar
     9     1    18    1
    10     1    26    1
    11    26    27   ar
    12    27    28   ar
    13    28    29   ar
    14    29    30    1
    15    29    31   ar
    16     1     2    1
    17     2     3    1
    18     3    32    1
    19    32    33   ar
    20    33    34   ar
    21    34    38    1
    22    38    39   ar
    23    39    40   ar
    24    40    41   ar
    25    41    42    1
    26    41    43   ar
    27    43    44   ar
    28    34    35   ar
    29    35    36   ar
    30     3     4    1
    31     4     5    1
    32     5     6    2
    33     6     7    1
    34     7     8    2
    35     8     9    1
    36     9    10    1
    37    10    11    2
    38    11    12    1
    39    12    13    2
    40    18    19   ar
    41    19    20   ar
    42    20    15   ar
    43     6     1    1
    44    13     8    1
    45    31    26   ar
    46    36    32   ar
    47    13     5    1
    48    44    38   ar
    49     2    14    1
    50    36    37    1
@<TRIPOS>MOLECULE
*****
 44 50 0 0 0
SMALL
GASTEIGER

@<TRIPOS>ATOM
      1 C         141.1753  140.1303  159.2526 C.3     1  UNL1        0.1354
      2 N         141.7333  138.8479  158.7102 N.3     1  UNL1       -0.2823
      3 C         142.4704  138.8440  157.4039 C.3     1  UNL1        0.1166
      4 C         142.6496  140.1224  156.6399 C.3     1  UNL1        0.0511
      5 C         142.0917  141.4047  157.1823 C.2     1  UNL1       -0.0038
      6 C         141.3545  141.4087  158.4887 C.2     1  UNL1        0.0768
      7 N         140.9187  142.8160  158.7707 N.2     1  UNL1       -0.2520
      8 C         141.3866  143.6818  157.6386 C.2     1  UNL1        0.0627
      9 C         141.2461  145.1517  157.3749 C.3     1  UNL1        0.0717
     10 C         141.8306  145.7494  156.1295 C.2     1  UNL1       -0.0198
     11 C         142.5555  144.8771  155.1478 C.2     1  UNL1       -0.0042
     12 C         142.6960  143.4072  155.4115 C.2     1  UNL1        0.0006
     13 C         142.1115  142.8096  156.6569 C.2     1  UNL1        0.0111
     14 H         140.9478  138.2054  158.6071 H       1  UNL1        0.1245
     15 C         139.0594  142.9905  162.0079 C.ar    1  UNL1        0.0947
     16 C         138.2979  142.2990  160.9162 C.ar    1  UNL1        0.0093
     17 C         139.0033  141.3456  159.9977 C.ar    1  UNL1        0.0169
     18 C         140.4700  141.0837  160.1711 C.ar    1  UNL1        0.0810
     19 N         141.2314  141.7752  161.2629 N.ar    1  UNL1       -0.2460
     20 C         140.5262  142.7287  162.1814 C.ar    1  UNL1        0.1049
     21 C         138.3541  143.9440  162.9264 C.2     1  UNL1        0.3427
     22 O         137.8286  145.2452  162.3970 O.2     1  UNL1       -0.2448
     23 O         138.1745  143.5960  164.3745 O.3     1  UNL1       -0.4454
     24 C         140.2557  143.2087  165.8805 C.3     1  UNL1        0.0513
     25 C         139.1522  144.1005  165.3940 C.3     1  UNL1        0.2089
     26 C         140.7512  139.1830  160.3356 C.ar    1  UNL1        0.0407
     27 C         139.4314  138.4753  160.4209 C.ar    1  UNL1        0.1193
     28 N         139.4370  137.6321  161.6614 N.ar    1  UNL1       -0.1679
     29 N         140.7601  137.8186  162.3428 N.ar    1  UNL1       -0.2476
     30 C         141.1948  137.1620  163.6194 C.3     1  UNL1        0.1537
     31 C         141.5724  138.7772  161.5234 C.ar    1  UNL1        0.0944
     32 C         143.0284  137.5615  156.8614 C.ar    1  UNL1        0.1318
     33 N         142.7086  136.1820  157.3559 N.ar    1  UNL1       -0.2298
     34 C         143.4866  135.2014  156.5294 C.ar    1  UNL1        0.0996
     35 C         144.2873  135.9750  155.5242 C.ar    1  UNL1        0.0927
     36 N         144.0041  137.4336  155.7294 N.ar    1  UNL1       -0.3386
     37 H         144.3908  138.1766  155.2119 H       1  UNL1        0.1672
     38 C         143.4674  133.7092  156.6814 C.ar    1  UNL1        0.0193
     39 C         144.5037  133.0279  157.5252 C.ar    1  UNL1        0.0039
     40 C         144.4844  131.5358  157.6772 C.ar    1  UNL1        0.0297
     41 C         143.4289  130.7250  156.9856 C.ar    1  UNL1        0.1401
     42 F         143.4096  129.2328  157.1376 F       1  UNL1       -0.2042
     43 C         142.3926  131.4063  156.1418 C.ar    1  UNL1        0.0297
     44 C         142.4118  132.8984  155.9897 C.ar    1  UNL1        0.0039
@<TRIPOS>BOND
     1    24    25    1
     2    25    23    1
     3    23    21    1
     4    21    22    2
     5    21    15    1
     6    15    16   ar
     7    16    17   ar
     8    17    18   ar
     9     1    18    1
    10     1    26    1
    11    26    27   ar
    12    27    28   ar
    13    28    29   ar
    14    29    30    1
    15    29    31   ar
    16     1     2    1
    17     2     3    1
    18     3    32    1
    19    32    33   ar
    20    33    34   ar
    21    34    38    1
    22    38    39   ar
    23    39    40   ar
    24    40    41   ar
    25    41    42    1
    26    41    43   ar
    27    43    44   ar
    28    34    35   ar
    29    35    36   ar
    30     3     4    1
    31     4     5    1
    32     5     6    2
    33     6     7    1
    34     7     8    2
    35     8     9    1
    36     9    10    1
    37    10    11    2
    38    11    12    1
    39    12    13    2
    40    18    19   ar
    41    19    20   ar
    42    20    15   ar
    43     6     1    1
    44    13     8    1
    45    31    26   ar
    46    36    32   ar
    47    13     5    1
    48    44    38   ar
    49     2    14    1
    50    36    37    1
@<TRIPOS>MOLECULE
*****
 44 50 0 0 0
SMALL
GASTEIGER

@<TRIPOS>ATOM
      1 C         142.6522  138.7381  158.4316 C.3     1  UNL1        0.1354
      2 N         142.4006  137.2870  158.1471 N.3     1  UNL1       -0.2823
      3 C         142.8832  136.6798  156.8632 C.3     1  UNL1        0.1166
      4 C         143.6175  137.5238  155.8639 C.3     1  UNL1        0.0511
      5 C         143.8691  138.9748  156.1484 C.2     1  UNL1       -0.0038
      6 C         143.3865  139.5820  157.4323 C.2     1  UNL1        0.0768
      7 N         143.7787  141.0298  157.4365 N.2     1  UNL1       -0.2520
      8 C         144.5038  141.3174  156.1553 C.2     1  UNL1        0.0627
      9 C         145.1203  142.5717  155.6107 C.3     1  UNL1        0.0717
     10 C         145.7927  142.5559  154.2700 C.2     1  UNL1       -0.0198
     11 C         145.8486  141.2858  153.4739 C.2     1  UNL1       -0.0042
     12 C         145.2321  140.0316  154.0185 C.2     1  UNL1        0.0006
     13 C         144.5596  140.0474  155.3592 C.2     1  UNL1        0.0111
     14 H         141.3899  137.1525  158.1748 H       1  UNL1        0.1245
     15 C         142.6409  142.6887  160.5863 C.ar    1  UNL1        0.0947
     16 C         143.7425  141.7016  160.8355 C.ar    1  UNL1        0.0093
     17 C         143.7463  140.3847  160.1173 C.ar    1  UNL1        0.0169
     18 C         142.6484  140.0550  159.1499 C.ar    1  UNL1        0.0810
     19 N         141.5468  141.0420  158.9007 N.ar    1  UNL1       -0.2460
     20 C         141.5430  142.3590  159.6189 C.ar    1  UNL1        0.1049
     21 C         142.6371  144.0056  161.3045 C.2     1  UNL1        0.3427
     22 O         141.4320  144.8957  161.2324 O.2     1  UNL1       -0.2448
     23 O         143.8385  144.4323  162.0948 O.3     1  UNL1       -0.4454
     24 C         144.0928  143.6572  164.5615 C.3     1  UNL1        0.0513
     25 C         143.7105  144.7096  163.5634 C.3     1  UNL1        0.2089
     26 C         141.9166  138.3516  159.6804 C.ar    1  UNL1        0.0407
     27 C         142.5162  137.6993  160.8908 C.ar    1  UNL1        0.1193
     28 N         141.4223  137.4941  161.8965 N.ar    1  UNL1       -0.1679
     29 N         140.1467  138.0195  161.3077 N.ar    1  UNL1       -0.2476
     30 C         138.8018  138.0156  161.9718 C.3     1  UNL1        0.1537
     31 C         140.4522  138.5494  159.9380 C.ar    1  UNL1        0.0944
     32 C         142.6316  135.2287  156.5786 C.ar    1  UNL1        0.1318
     33 N         143.4319  134.0751  157.1066 N.ar    1  UNL1       -0.2298
     34 C         142.8304  132.8098  156.5704 C.ar    1  UNL1        0.0996
     35 C         141.6585  133.1815  155.7111 C.ar    1  UNL1        0.0927
     36 N         141.5356  134.6765  155.7162 N.ar    1  UNL1       -0.3386
     37 H         140.8551  135.2028  155.2375 H       1  UNL1        0.1672
     38 C         143.3158  131.4173  156.8453 C.ar    1  UNL1        0.0193
     39 C         144.3707  131.1825  157.8855 C.ar    1  UNL1        0.0039
     40 C         144.8560  129.7901  158.1604 C.ar    1  UNL1        0.0297
     41 C         144.2865  128.6326  157.3951 C.ar    1  UNL1        0.1401
     42 F         144.7718  127.2401  157.6700 F       1  UNL1       -0.2042
     43 C         143.2316  128.8674  156.3549 C.ar    1  UNL1        0.0297
     44 C         142.7463  130.2598  156.0800 C.ar    1  UNL1        0.0039
@<TRIPOS>BOND
     1    24    25    1
     2    25    23    1
     3    23    21    1
     4    21    22    2
     5    21    15    1
     6    15    16   ar
     7    16    17   ar
     8    17    18   ar
     9     1    18    1
    10     1    26    1
    11    26    27   ar
    12    27    28   ar
    13    28    29   ar
    14    29    30    1
    15    29    31   ar
    16     1     2    1
    17     2     3    1
    18     3    32    1
    19    32    33   ar
    20    33    34   ar
    21    34    38    1
    22    38    39   ar
    23    39    40   ar
    24    40    41   ar
    25    41    42    1
    26    41    43   ar
    27    43    44   ar
    28    34    35   ar
    29    35    36   ar
    30     3     4    1
    31     4     5    1
    32     5     6    2
    33     6     7    1
    34     7     8    2
    35     8     9    1
    36     9    10    1
    37    10    11    2
    38    11    12    1
    39    12    13    2
    40    18    19   ar
    41    19    20   ar
    42    20    15   ar
    43     6     1    1
    44    13     8    1
    45    31    26   ar
    46    36    32   ar
    47    13     5    1
    48    44    38   ar
    49     2    14    1
    50    36    37    1
@<TRIPOS>MOLECULE
*****
 44 50 0 0 0
SMALL
GASTEIGER

@<TRIPOS>ATOM
      1 C         142.6261  139.8463  160.1670 C.3     1  UNL1        0.1354
      2 N         142.6553  140.4505  161.5397 N.3     1  UNL1       -0.2823
      3 C         143.6127  141.5630  161.8491 C.3     1  UNL1        0.1166
      4 C         144.5407  142.0714  160.7859 C.3     1  UNL1        0.0511
      5 C         144.5114  141.4672  159.4133 C.2     1  UNL1       -0.0038
      6 C         143.5541  140.3547  159.1039 C.2     1  UNL1        0.0768
      7 N         143.7518  139.9583  157.6708 N.2     1  UNL1       -0.2520
      8 C         144.8313  140.8259  157.0945 C.2     1  UNL1        0.0627
      9 C         145.4473  140.8871  155.7283 C.3     1  UNL1        0.0717
     10 C         146.5329  141.8810  155.4390 C.2     1  UNL1       -0.0198
     11 C         147.0024  142.8136  156.5160 C.2     1  UNL1       -0.0042
     12 C         146.3863  142.7523  157.8822 C.2     1  UNL1        0.0006
     13 C         145.3008  141.7585  158.1715 C.2     1  UNL1        0.0111
     14 H         142.8638  139.6931  162.1903 H       1  UNL1        0.1245
     15 C         141.4266  137.1831  156.7438 C.ar    1  UNL1        0.0947
     16 C         140.6960  138.4709  156.9837 C.ar    1  UNL1        0.0093
     17 C         141.0959  139.3587  158.1248 C.ar    1  UNL1        0.0169
     18 C         142.2263  138.9585  159.0259 C.ar    1  UNL1        0.0810
     19 N         142.9568  137.6707  158.7860 N.ar    1  UNL1       -0.2460
     20 C         142.5570  136.7829  157.6449 C.ar    1  UNL1        0.1049
     21 C         141.0268  136.2953  155.6027 C.2     1  UNL1        0.3427
     22 O         139.6565  136.4139  155.0046 O.2     1  UNL1       -0.2448
     23 O         141.9976  135.2887  155.0599 O.3     1  UNL1       -0.4454
     24 C         142.6338  133.1854  156.4459 C.3     1  UNL1        0.0513
     25 C         141.8171  133.8316  155.3664 C.3     1  UNL1        0.2089
     26 C         141.5592  139.0296  160.8339 C.ar    1  UNL1        0.0407
     27 C         141.7793  137.7960  161.6585 C.ar    1  UNL1        0.1193
     28 N         140.4410  137.3071  162.1275 N.ar    1  UNL1       -0.1679
     29 N         139.3938  138.2384  161.5927 N.ar    1  UNL1       -0.2476
     30 C         137.9152  138.1252  161.8179 C.3     1  UNL1        0.1537
     31 C         140.0849  139.3030  160.7932 C.ar    1  UNL1        0.0944
     32 C         143.6420  142.1672  163.2218 C.ar    1  UNL1        0.1318
     33 N         142.8125  141.7334  164.3938 N.ar    1  UNL1       -0.2298
     34 C         143.1638  142.6094  165.5598 C.ar    1  UNL1        0.0996
     35 C         144.2103  143.5845  165.1082 C.ar    1  UNL1        0.0927
     36 N         144.5058  143.3112  163.6633 N.ar    1  UNL1       -0.3386
     37 H         145.1532  143.7974  163.1030 H       1  UNL1        0.1672
     38 C         142.5723  142.5249  166.9357 C.ar    1  UNL1        0.0193
     39 C         141.0829  142.5325  167.1135 C.ar    1  UNL1        0.0039
     40 C         140.4914  142.4481  168.4894 C.ar    1  UNL1        0.0297
     41 C         141.3893  142.3561  169.6874 C.ar    1  UNL1        0.1401
     42 F         140.7979  142.2717  171.0633 F       1  UNL1       -0.2042
     43 C         142.8787  142.3486  169.5095 C.ar    1  UNL1        0.0297
     44 C         143.4702  142.4330  168.1337 C.ar    1  UNL1        0.0039
@<TRIPOS>BOND
     1    24    25    1
     2    25    23    1
     3    23    21    1
     4    21    22    2
     5    21    15    1
     6    15    16   ar
     7    16    17   ar
     8    17    18   ar
     9     1    18    1
    10     1    26    1
    11    26    27   ar
    12    27    28   ar
    13    28    29   ar
    14    29    30    1
    15    29    31   ar
    16     1     2    1
    17     2     3    1
    18     3    32    1
    19    32    33   ar
    20    33    34   ar
    21    34    38    1
    22    38    39   ar
    23    39    40   ar
    24    40    41   ar
    25    41    42    1
    26    41    43   ar
    27    43    44   ar
    28    34    35   ar
    29    35    36   ar
    30     3     4    1
    31     4     5    1
    32     5     6    2
    33     6     7    1
    34     7     8    2
    35     8     9    1
    36     9    10    1
    37    10    11    2
    38    11    12    1
    39    12    13    2
    40    18    19   ar
    41    19    20   ar
    42    20    15   ar
    43     6     1    1
    44    13     8    1
    45    31    26   ar
    46    36    32   ar
    47    13     5    1
    48    44    38   ar
    49     2    14    1
    50    36    37    1
@<TRIPOS>MOLECULE
*****
 44 50 0 0 0
SMALL
GASTEIGER

@<TRIPOS>ATOM
      1 C         140.4017  141.3947  160.1382 C.3     1  UNL1        0.1354
      2 N         140.7930  141.0833  161.5523 N.3     1  UNL1       -0.2823
      3 C         141.5803  139.8433  161.8569 C.3     1  UNL1        0.1166
      4 C         141.9763  138.9149  160.7473 C.3     1  UNL1        0.0511
      5 C         141.5851  139.2264  159.3332 C.2     1  UNL1       -0.0038
      6 C         140.7978  140.4663  159.0286 C.2     1  UNL1        0.0768
      7 N         140.5571  140.5106  157.5487 N.2     1  UNL1       -0.2520
      8 C         141.1957  139.2982  156.9386 C.2     1  UNL1        0.0627
      9 C         141.2807  138.8143  155.5214 C.3     1  UNL1        0.0717
     10 C         142.0011  137.5368  155.2070 C.2     1  UNL1       -0.0198
     11 C         142.6364  136.7430  156.3099 C.2     1  UNL1       -0.0042
     12 C         142.5514  137.2269  157.7272 C.2     1  UNL1        0.0006
     13 C         141.8310  138.5044  158.0415 C.2     1  UNL1        0.0111
     14 H         139.9286  141.0228  162.0905 H       1  UNL1        0.1245
     15 C         138.5977  143.5571  156.6283 C.ar    1  UNL1        0.0947
     16 C         137.7824  142.5563  157.3923 C.ar    1  UNL1        0.0093
     17 C         138.3838  141.8355  158.5623 C.ar    1  UNL1        0.0169
     18 C         139.8004  142.1156  158.9682 C.ar    1  UNL1        0.0810
     19 N         140.6156  143.1163  158.2042 N.ar    1  UNL1       -0.2460
     20 C         140.0143  143.8371  157.0342 C.ar    1  UNL1        0.1049
     21 C         137.9963  144.2779  155.4583 C.2     1  UNL1        0.3427
     22 O         136.5917  143.9722  155.0303 O.2     1  UNL1       -0.2448
     23 O         138.7998  145.3046  154.7163 O.3     1  UNL1       -0.4454
     24 C         139.1313  147.3809  156.2424 C.3     1  UNL1        0.0513
     25 C         138.5864  146.7641  154.9884 C.3     1  UNL1        0.2089
     26 C         139.7968  142.5735  160.8414 C.ar    1  UNL1        0.0407
     27 C         138.4657  142.6002  161.5323 C.ar    1  UNL1        0.1193
     28 N         138.2631  143.9758  162.0951 N.ar    1  UNL1       -0.1679
     29 N         139.4690  144.7993  161.7520 N.ar    1  UNL1       -0.2476
     30 C         139.6884  146.2369  162.1193 C.3     1  UNL1        0.1537
     31 C         140.4169  143.9326  160.9772 C.ar    1  UNL1        0.0944
     32 C         141.9716  139.5318  163.2712 C.ar    1  UNL1        0.1318
     33 N         141.2325  139.9585  164.5047 N.ar    1  UNL1       -0.2298
     34 C         141.9747  139.4294  165.6960 C.ar    1  UNL1        0.0996
     35 C         143.1724  138.6756  165.1986 C.ar    1  UNL1        0.0927
     36 N         143.1705  138.7390  163.7000 N.ar    1  UNL1       -0.3386
     37 H         143.8388  138.3317  163.1027 H       1  UNL1        0.1672
     38 C         141.5872  139.6204  167.1325 C.ar    1  UNL1        0.0193
     39 C         140.1967  140.0614  167.4819 C.ar    1  UNL1        0.0039
     40 C         139.8092  140.2524  168.9183 C.ar    1  UNL1        0.0297
     41 C         140.8122  140.0025  170.0053 C.ar    1  UNL1        0.1401
     42 F         140.4246  140.1936  171.4417 F       1  UNL1       -0.2042
     43 C         142.2026  139.5616  169.6559 C.ar    1  UNL1        0.0297
     44 C         142.5902  139.3705  168.2195 C.ar    1  UNL1        0.0039
@<TRIPOS>BOND
     1    24    25    1
     2    25    23    1
     3    23    21    1
     4    21    22    2
     5    21    15    1
     6    15    16   ar
     7    16    17   ar
     8    17    18   ar
     9     1    18    1
    10     1    26    1
    11    26    27   ar
    12    27    28   ar
    13    28    29   ar
    14    29    30    1
    15    29    31   ar
    16     1     2    1
    17     2     3    1
    18     3    32    1
    19    32    33   ar
    20    33    34   ar
    21    34    38    1
    22    38    39   ar
    23    39    40   ar
    24    40    41   ar
    25    41    42    1
    26    41    43   ar
    27    43    44   ar
    28    34    35   ar
    29    35    36   ar
    30     3     4    1
    31     4     5    1
    32     5     6    2
    33     6     7    1
    34     7     8    2
    35     8     9    1
    36     9    10    1
    37    10    11    2
    38    11    12    1
    39    12    13    2
    40    18    19   ar
    41    19    20   ar
    42    20    15   ar
    43     6     1    1
    44    13     8    1
    45    31    26   ar
    46    36    32   ar
    47    13     5    1
    48    44    38   ar
    49     2    14    1
    50    36    37    1
@<TRIPOS>MOLECULE
*****
 44 50 0 0 0
SMALL
GASTEIGER

@<TRIPOS>ATOM
      1 C         141.7946  140.5847  159.2218 C.3     1  UNL1        0.1354
      2 N         142.3125  139.6706  158.1512 N.3     1  UNL1       -0.2823
      3 C         142.5445  138.2195  158.4516 C.3     1  UNL1        0.1166
      4 C         142.2586  137.6823  159.8226 C.3     1  UNL1        0.0511
      5 C         141.7407  138.5963  160.8933 C.2     1  UNL1       -0.0038
      6 C         141.5087  140.0475  160.5929 C.2     1  UNL1        0.0768
      7 N         140.9956  140.7028  161.8408 N.2     1  UNL1       -0.2520
      8 C         140.9106  139.6567  162.9124 C.2     1  UNL1        0.0627
      9 C         140.4733  139.7214  164.3458 C.3     1  UNL1        0.0717
     10 C         140.4966  138.4842  165.1936 C.2     1  UNL1       -0.0198
     11 C         140.9571  137.1823  164.6080 C.2     1  UNL1       -0.0042
     12 C         141.3943  137.1176  163.1746 C.2     1  UNL1        0.0006
     13 C         141.3711  138.3548  162.3268 C.2     1  UNL1        0.0111
     14 H         143.2061  140.0542  157.8435 H       1  UNL1        0.1245
     15 C         140.3666  144.3392  161.2502 C.ar    1  UNL1        0.0947
     16 C         141.8307  144.0148  161.2176 C.ar    1  UNL1        0.0093
     17 C         142.3067  142.7632  160.5415 C.ar    1  UNL1        0.0169
     18 C         141.3185  141.8362  159.8980 C.ar    1  UNL1        0.0810
     19 N         139.8545  142.1606  159.9305 N.ar    1  UNL1       -0.2460
     20 C         139.3784  143.4122  160.6066 C.ar    1  UNL1        0.1049
     21 C         139.8905  145.5907  161.9263 C.2     1  UNL1        0.3427
     22 O         139.1808  146.6479  161.1336 O.2     1  UNL1       -0.2448
     23 O         140.1242  145.7849  163.3952 O.3     1  UNL1       -0.4454
     24 C         138.5989  144.7863  165.2462 C.3     1  UNL1        0.0513
     25 C         139.8030  144.6806  164.3582 C.3     1  UNL1        0.2089
     26 C         141.9151  141.5565  158.0856 C.ar    1  UNL1        0.0407
     27 C         143.1671  142.2645  157.6601 C.ar    1  UNL1        0.1193
     28 N         142.8305  143.1365  156.4868 N.ar    1  UNL1       -0.1679
     29 N         141.3705  142.9674  156.1873 N.ar    1  UNL1       -0.2476
     30 C         140.6098  143.6542  155.0921 C.3     1  UNL1        0.1537
     31 C         140.8047  141.9909  157.1754 C.ar    1  UNL1        0.0944
     32 C         143.0624  137.3054  157.3809 C.ar    1  UNL1        0.1318
     33 N         142.8406  135.8239  157.3032 N.ar    1  UNL1       -0.2298
     34 C         143.5342  135.3152  156.0743 C.ar    1  UNL1        0.0996
     35 C         144.1846  136.4823  155.3925 C.ar    1  UNL1        0.0927
     36 N         143.8931  137.7123  156.2000 N.ar    1  UNL1       -0.3386
     37 H         144.1940  138.6262  155.9916 H       1  UNL1        0.1672
     38 C         143.5708  133.8897  155.6089 C.ar    1  UNL1        0.0193
     39 C         144.4233  132.8873  156.3291 C.ar    1  UNL1        0.0039
     40 C         144.4599  131.4618  155.8638 C.ar    1  UNL1        0.0297
     41 C         143.6442  131.0387  154.6783 C.ar    1  UNL1        0.1401
     42 F         143.6808  129.6131  154.2129 F       1  UNL1       -0.2042
     43 C         142.7917  132.0410  153.9581 C.ar    1  UNL1        0.0297
     44 C         142.7551  133.4665  154.4234 C.ar    1  UNL1        0.0039
@<TRIPOS>BOND
     1    24    25    1
     2    25    23    1
     3    23    21    1
     4    21    22    2
     5    21    15    1
     6    15    16   ar
     7    16    17   ar
     8    17    18   ar
     9     1    18    1
    10     1    26    1
    11    26    27   ar
    12    27    28   ar
    13    28    29   ar
    14    29    30    1
    15    29    31   ar
    16     1     2    1
    17     2     3    1
    18     3    32    1
    19    32    33   ar
    20    33    34   ar
    21    34    38    1
    22    38    39   ar
    23    39    40   ar
    24    40    41   ar
    25    41    42    1
    26    41    43   ar
    27    43    44   ar
    28    34    35   ar
    29    35    36   ar
    30     3     4    1
    31     4     5    1
    32     5     6    2
    33     6     7    1
    34     7     8    2
    35     8     9    1
    36     9    10    1
    37    10    11    2
    38    11    12    1
    39    12    13    2
    40    18    19   ar
    41    19    20   ar
    42    20    15   ar
    43     6     1    1
    44    13     8    1
    45    31    26   ar
    46    36    32   ar
    47    13     5    1
    48    44    38   ar
    49     2    14    1
    50    36    37    1
@<TRIPOS>MOLECULE
*****
 44 50 0 0 0
SMALL
GASTEIGER

@<TRIPOS>ATOM
      1 C         141.8202  143.3365  159.6363 C.3     1  UNL1        0.1354
      2 N         142.1725  142.7775  160.9829 N.3     1  UNL1       -0.2823
      3 C         143.3313  141.8355  161.1240 C.3     1  UNL1        0.1166
      4 C         144.1378  141.4526  159.9186 C.3     1  UNL1        0.0511
      5 C         143.7855  142.0116  158.5720 C.2     1  UNL1       -0.0038
      6 C         142.6267  142.9536  158.4309 C.2     1  UNL1        0.0768
      7 N         142.5180  143.3413  156.9859 N.2     1  UNL1       -0.2520
      8 C         143.6096  142.6391  156.2341 C.2     1  UNL1        0.0627
      9 C         143.9915  142.6418  154.7836 C.3     1  UNL1        0.0717
     10 C         145.1567  141.8226  154.3133 C.2     1  UNL1       -0.0198
     11 C         145.9401  141.0008  155.2936 C.2     1  UNL1       -0.0042
     12 C         145.5582  140.9981  156.7441 C.2     1  UNL1        0.0006
     13 C         144.3930  141.8173  157.2144 C.2     1  UNL1        0.0111
     14 H         141.3475  142.2821  161.3211 H       1  UNL1        0.1245
     15 C         139.6630  145.6974  156.4704 C.ar    1  UNL1        0.0947
     16 C         140.8835  146.2677  157.1301 C.ar    1  UNL1        0.0093
     17 C         141.6025  145.4807  158.1854 C.ar    1  UNL1        0.0169
     18 C         141.1011  144.1234  158.5809 C.ar    1  UNL1        0.0810
     19 N         139.8807  143.5532  157.9212 N.ar    1  UNL1       -0.2460
     20 C         139.1616  144.3401  156.8659 C.ar    1  UNL1        0.1049
     21 C         138.9439  146.4843  155.4151 C.2     1  UNL1        0.3427
     22 O         137.6366  145.9897  154.8711 O.2     1  UNL1       -0.2448
     23 O         139.5323  147.7659  154.9038 O.3     1  UNL1       -0.4454
     24 C         138.4074  149.2282  156.7330 C.3     1  UNL1        0.0513
     25 C         138.9653  149.0814  155.3485 C.3     1  UNL1        0.2089
     26 C         140.7640  143.9927  160.4751 C.ar    1  UNL1        0.0407
     27 C         140.5489  145.4696  160.6255 C.ar    1  UNL1        0.1193
     28 N         139.3893  145.6768  161.5543 N.ar    1  UNL1       -0.1679
     29 N         138.8878  144.3282  161.9779 N.ar    1  UNL1       -0.2476
     30 C         137.7386  144.0663  162.9055 C.3     1  UNL1        0.1537
     31 C         139.7374  143.2873  161.3110 C.ar    1  UNL1        0.0944
     32 C         143.6837  141.2764  162.4707 C.ar    1  UNL1        0.1318
     33 N         142.9628  141.5538  163.7565 N.ar    1  UNL1       -0.2298
     34 C         143.6523  140.7907  164.8484 C.ar    1  UNL1        0.0996
     35 C         144.7993  140.0417  164.2374 C.ar    1  UNL1        0.0927
     36 N         144.8187  140.3419  162.7678 N.ar    1  UNL1       -0.3386
     37 H         145.4632  139.9878  162.1133 H       1  UNL1        0.1672
     38 C         143.2631  140.7787  166.2970 C.ar    1  UNL1        0.0193
     39 C         143.2170  142.0623  167.0718 C.ar    1  UNL1        0.0039
     40 C         142.8278  142.0503  168.5204 C.ar    1  UNL1        0.0297
     41 C         142.4848  140.7548  169.1941 C.ar    1  UNL1        0.1401
     42 F         142.0956  140.7428  170.6428 F       1  UNL1       -0.2042
     43 C         142.5309  139.4712  168.4193 C.ar    1  UNL1        0.0297
     44 C         142.9201  139.4832  166.9707 C.ar    1  UNL1        0.0039
@<TRIPOS>BOND
     1    24    25    1
     2    25    23    1
     3    23    21    1
     4    21    22    2
     5    21    15    1
     6    15    16   ar
     7    16    17   ar
     8    17    18   ar
     9     1    18    1
    10     1    26    1
    11    26    27   ar
    12    27    28   ar
    13    28    29   ar
    14    29    30    1
    15    29    31   ar
    16     1     2    1
    17     2     3    1
    18     3    32    1
    19    32    33   ar
    20    33    34   ar
    21    34    38    1
    22    38    39   ar
    23    39    40   ar
    24    40    41   ar
    25    41    42    1
    26    41    43   ar
    27    43    44   ar
    28    34    35   ar
    29    35    36   ar
    30     3     4    1
    31     4     5    1
    32     5     6    2
    33     6     7    1
    34     7     8    2
    35     8     9    1
    36     9    10    1
    37    10    11    2
    38    11    12    1
    39    12    13    2
    40    18    19   ar
    41    19    20   ar
    42    20    15   ar
    43     6     1    1
    44    13     8    1
    45    31    26   ar
    46    36    32   ar
    47    13     5    1
    48    44    38   ar
    49     2    14    1
    50    36    37    1
@<TRIPOS>MOLECULE
*****
 44 50 0 0 0
SMALL
GASTEIGER

@<TRIPOS>ATOM
      1 C         141.0160  139.8308  158.6202 C.3     1  UNL1        0.1354
      2 N         141.1862  138.3946  158.2221 N.3     1  UNL1       -0.2823
      3 C         141.7802  138.0515  156.8882 C.3     1  UNL1        0.1166
      4 C         142.2039  139.1444  155.9523 C.3     1  UNL1        0.0511
      5 C         142.0337  140.5806  156.3503 C.2     1  UNL1       -0.0038
      6 C         141.4398  140.9238  157.6843 C.2     1  UNL1        0.0768
      7 N         141.3954  142.4185  157.8011 N.2     1  UNL1       -0.2520
      8 C         141.9620  142.9992  156.5394 C.2     1  UNL1        0.0627
      9 C         142.1696  144.4155  156.0912 C.3     1  UNL1        0.0717
     10 C         142.7717  144.6958  154.7463 C.2     1  UNL1       -0.0198
     11 C         143.1662  143.5599  153.8496 C.2     1  UNL1       -0.0042
     12 C         142.9586  142.1436  154.2979 C.2     1  UNL1        0.0006
     13 C         142.3565  141.8633  155.6428 C.2     1  UNL1        0.0111
     14 H         140.2595  137.9696  158.2499 H       1  UNL1        0.1245
     15 C         139.9335  143.4354  161.0869 C.ar    1  UNL1        0.0947
     16 C         141.2830  142.7988  161.2412 C.ar    1  UNL1        0.0093
     17 C         141.6438  141.5972  160.4189 C.ar    1  UNL1        0.0169
     18 C         140.6551  141.0324  159.4424 C.ar    1  UNL1        0.0810
     19 N         139.3058  141.6689  159.2882 N.ar    1  UNL1       -0.2460
     20 C         138.9449  142.8705  160.1104 C.ar    1  UNL1        0.1049
     21 C         139.5726  144.6370  161.9092 C.2     1  UNL1        0.3427
     22 O         140.5877  145.7153  162.1472 O.2     1  UNL1       -0.2448
     23 O         138.1965  144.7601  162.4934 O.3     1  UNL1       -0.4454
     24 C         138.5696  144.6681  165.0628 C.3     1  UNL1        0.0513
     25 C         137.8915  144.1501  163.8293 C.3     1  UNL1        0.2089
     26 C         140.4670  139.1552  159.8416 C.ar    1  UNL1        0.0407
     27 C         139.0151  138.9536  160.1602 C.ar    1  UNL1        0.1193
     28 N         138.9243  138.2363  161.4745 N.ar    1  UNL1       -0.1679
     29 N         140.3199  137.9945  161.9681 N.ar    1  UNL1       -0.2476
     30 C         140.6960  137.3058  163.2464 C.3     1  UNL1        0.1537
     31 C         141.2734  138.5624  160.9589 C.ar    1  UNL1        0.0944
     32 C         141.9504  136.6152  156.4900 C.ar    1  UNL1        0.1318
     33 N         142.7451  135.5827  157.2332 N.ar    1  UNL1       -0.2298
     34 C         142.6417  134.2888  156.4814 C.ar    1  UNL1        0.0996
     35 C         141.7832  134.5217  155.2737 C.ar    1  UNL1        0.0927
     36 N         141.3559  135.9596  155.2790 N.ar    1  UNL1       -0.3386
     37 H         140.7854  136.3963  154.6059 H       1  UNL1        0.1672
     38 C         143.2842  132.9899  156.8692 C.ar    1  UNL1        0.0193
     39 C         144.5633  132.9904  157.6527 C.ar    1  UNL1        0.0039
     40 C         145.2058  131.6917  158.0405 C.ar    1  UNL1        0.0297
     41 C         144.5690  130.3925  157.6450 C.ar    1  UNL1        0.1401
     42 F         145.2115  129.0936  158.0329 F       1  UNL1       -0.2042
     43 C         143.2898  130.3920  156.8616 C.ar    1  UNL1        0.0297
     44 C         142.6474  131.6907  156.4737 C.ar    1  UNL1        0.0039
@<TRIPOS>BOND
     1    24    25    1
     2    25    23    1
     3    23    21    1
     4    21    22    2
     5    21    15    1
     6    15    16   ar
     7    16    17   ar
     8    17    18   ar
     9     1    18    1
    10     1    26    1
    11    26    27   ar
    12    27    28   ar
    13    28    29   ar
    14    29    30    1
    15    29    31   ar
    16     1     2    1
    17     2     3    1
    18     3    32    1
    19    32    33   ar
    20    33    34   ar
    21    34    38    1
    22    38    39   ar
    23    39    40   ar
    24    40    41   ar
    25    41    42    1
    26    41    43   ar
    27    43    44   ar
    28    34    35   ar
    29    35    36   ar
    30     3     4    1
    31     4     5    1
    32     5     6    2
    33     6     7    1
    34     7     8    2
    35     8     9    1
    36     9    10    1
    37    10    11    2
    38    11    12    1
    39    12    13    2
    40    18    19   ar
    41    19    20   ar
    42    20    15   ar
    43     6     1    1
    44    13     8    1
    45    31    26   ar
    46    36    32   ar
    47    13     5    1
    48    44    38   ar
    49     2    14    1
    50    36    37    1
@<TRIPOS>MOLECULE
*****
 44 50 0 0 0
SMALL
GASTEIGER

@<TRIPOS>ATOM
      1 C         140.3096  140.8549  160.1617 C.3     1  UNL1        0.1354
      2 N         140.9431  140.7914  161.5199 N.3     1  UNL1       -0.2823
      3 C         141.9635  139.7345  161.8227 C.3     1  UNL1        0.1166
      4 C         142.3505  138.7412  160.7674 C.3     1  UNL1        0.0511
      5 C         141.7170  138.8048  159.4093 C.2     1  UNL1       -0.0038
      6 C         140.6965  139.8616  159.1064 C.2     1  UNL1        0.0768
      7 N         140.2458  139.6776  157.6876 N.2     1  UNL1       -0.2520
      8 C         140.9877  138.5071  157.1136 C.2     1  UNL1        0.0627
      9 C         140.9527  137.8628  155.7595 C.3     1  UNL1        0.0717
     10 C         141.8270  136.6790  155.4695 C.2     1  UNL1       -0.0198
     11 C         142.7363  136.1395  156.5336 C.2     1  UNL1       -0.0042
     12 C         142.7712  136.7838  157.8877 C.2     1  UNL1        0.0006
     13 C         141.8969  137.9676  158.1777 C.2     1  UNL1        0.0111
     14 H         140.1859  140.6710  162.1926 H       1  UNL1        0.1245
     15 C         137.6899  142.2483  156.7786 C.ar    1  UNL1        0.0947
     16 C         137.2829  141.0633  157.6033 C.ar    1  UNL1        0.0093
     17 C         138.1562  140.5988  158.7310 C.ar    1  UNL1        0.0169
     18 C         139.4364  141.3195  159.0340 C.ar    1  UNL1        0.0810
     19 N         139.8433  142.5044  158.2093 N.ar    1  UNL1       -0.2460
     20 C         138.9701  142.9689  157.0816 C.ar    1  UNL1        0.1049
     21 C         136.8167  142.7128  155.6509 C.2     1  UNL1        0.3427
     22 O         136.6731  144.1788  155.3683 O.2     1  UNL1       -0.2448
     23 O         136.0870  141.7111  154.8057 O.3     1  UNL1       -0.4454
     24 C         134.2072  140.1023  155.5984 C.3     1  UNL1        0.0513
     25 C         134.6343  141.4343  155.0568 C.3     1  UNL1        0.2089
     26 C         139.6194  142.0096  160.8253 C.ar    1  UNL1        0.0407
     27 C         138.1854  142.0457  161.2639 C.ar    1  UNL1        0.1193
     28 N         137.9218  143.3893  161.8765 N.ar    1  UNL1       -0.1679
     29 N         139.1928  144.1836  161.8165 N.ar    1  UNL1       -0.2476
     30 C         139.3816  145.5845  162.3181 C.3     1  UNL1        0.1537
     31 C         140.2420  143.3309  161.1668 C.ar    1  UNL1        0.0944
     32 C         142.5971  139.6710  163.1810 C.ar    1  UNL1        0.1318
     33 N         142.0565  140.2899  164.4358 N.ar    1  UNL1       -0.2298
     34 C         143.0077  139.9788  165.5531 C.ar    1  UNL1        0.0996
     35 C         144.1362  139.1676  164.9888 C.ar    1  UNL1        0.0927
     36 N         143.8824  138.9774  163.5227 N.ar    1  UNL1       -0.3386
     37 H         144.4584  138.4839  162.8950 H       1  UNL1        0.1672
     38 C         142.8569  140.4042  166.9836 C.ar    1  UNL1        0.0193
     39 C         142.6444  139.3748  168.0538 C.ar    1  UNL1        0.0039
     40 C         142.4935  139.8002  169.4842 C.ar    1  UNL1        0.0297
     41 C         142.5553  141.2549  169.8446 C.ar    1  UNL1        0.1401
     42 F         142.4044  141.6803  171.2751 F       1  UNL1       -0.2042
     43 C         142.7678  142.2843  168.7744 C.ar    1  UNL1        0.0297
     44 C         142.9186  141.8589  167.3439 C.ar    1  UNL1        0.0039
@<TRIPOS>BOND
     1    24    25    1
     2    25    23    1
     3    23    21    1
     4    21    22    2
     5    21    15    1
     6    15    16   ar
     7    16    17   ar
     8    17    18   ar
     9     1    18    1
    10     1    26    1
    11    26    27   ar
    12    27    28   ar
    13    28    29   ar
    14    29    30    1
    15    29    31   ar
    16     1     2    1
    17     2     3    1
    18     3    32    1
    19    32    33   ar
    20    33    34   ar
    21    34    38    1
    22    38    39   ar
    23    39    40   ar
    24    40    41   ar
    25    41    42    1
    26    41    43   ar
    27    43    44   ar
    28    34    35   ar
    29    35    36   ar
    30     3     4    1
    31     4     5    1
    32     5     6    2
    33     6     7    1
    34     7     8    2
    35     8     9    1
    36     9    10    1
    37    10    11    2
    38    11    12    1
    39    12    13    2
    40    18    19   ar
    41    19    20   ar
    42    20    15   ar
    43     6     1    1
    44    13     8    1
    45    31    26   ar
    46    36    32   ar
    47    13     5    1
    48    44    38   ar
    49     2    14    1
    50    36    37    1
