@<TRIPOS>MOLECULE
*****
 36 40 0 0 0
SMALL
GASTEIGER

@<TRIPOS>ATOM
      1 N         141.7974  137.9556  164.1081 N.3     1  UNL1       -0.2703
      2 C         142.3874  138.5074  165.3720 C.3     1  UNL1        0.0736
      3 C         143.6838  139.2607  165.3280 C.3     1  UNL1        0.0356
      4 C         144.3902  139.4621  164.0201 C.3     1  UNL1        0.0843
      5 C         143.8001  138.9103  162.7563 C.3     1  UNL1        0.1407
      6 O         144.5065  139.1117  161.4484 O.3     1  UNL1       -0.3817
      7 C         142.5037  138.1570  162.8003 C.3     1  UNL1        0.1031
      8 H         143.9947  138.6957  160.7371 H       1  UNL1        0.2105
      9 N         145.6865  140.2154  163.9761 N.3     1  UNL1       -0.2915
     10 H         146.1999  139.8709  163.1649 H       1  UNL1        0.1236
     11 C         145.6813  141.7124  163.8814 C.3     1  UNL1        0.1153
     12 C         144.7307  142.4015  162.9480 C.ar    1  UNL1        0.0782
     13 C         143.6631  143.3022  163.4949 C.ar    1  UNL1        0.0562
     14 C         142.7124  143.9913  162.5613 C.ar    1  UNL1        0.1752
     15 C         142.8294  143.7798  161.0810 C.ar    1  UNL1        0.1914
     16 C         143.8970  142.8792  160.5341 C.ar    1  UNL1        0.1384
     17 N         144.8476  142.1900  161.4675 N.ar    1  UNL1       -0.2434
     18 O         141.8787  144.4690  160.1474 O.3     1  UNL1       -0.4668
     19 C         140.8112  145.3696  160.6943 C.3     1  UNL1        0.2527
     20 C         140.6942  145.5811  162.1748 C.3     1  UNL1        0.2526
     21 O         141.6449  144.8920  163.1083 O.3     1  UNL1       -0.4683
     22 C         140.5010  137.2023  164.1521 C.3     1  UNL1        0.0770
     23 C         139.2376  137.9063  164.5500 C.3     1  UNL1        0.0476
     24 C         139.9881  142.0032  166.2536 C.ar    1  UNL1        0.2250
     25 C         139.5398  143.2215  165.5021 C.ar    1  UNL1        0.0593
     26 C         138.8415  143.0743  164.1828 C.ar    1  UNL1        0.0254
     27 C         138.5913  141.7087  163.6149 C.ar    1  UNL1        0.0990
     28 N         137.8930  141.5614  162.2956 N.ar    1  UNL1       -0.2400
     29 C         137.6428  140.1958  161.7277 C.ar    1  UNL1        0.1281
     30 C         138.0910  138.9774  162.4792 C.ar    1  UNL1        0.1567
     31 F         137.8409  137.6118  161.9113 F       1  UNL1       -0.2028
     32 C         138.7894  139.1246  163.7985 C.ar    1  UNL1        0.0274
     33 C         139.0395  140.4903  164.3664 C.ar    1  UNL1        0.1002
     34 N         139.7379  140.6376  165.6857 N.ar    1  UNL1       -0.2104
     35 C         142.1718  141.9614  167.6604 C.3     1  UNL1        0.2542
     36 O         140.6864  142.1505  167.5729 O.3     1  UNL1       -0.4561
@<TRIPOS>BOND
     1    35    36    1
     2    36    24    1
     3    24    25   ar
     4    25    26   ar
     5    26    27   ar
     6    27    28   ar
     7    28    29   ar
     8    29    30   ar
     9    30    31    1
    10    30    32   ar
    11    32    23    1
    12    23    22    1
    13    22     1    1
    14     1     2    1
    15     2     3    1
    16     3     4    1
    17     4     9    1
    18     9    11    1
    19    11    12    1
    20    12    13   ar
    21    13    14   ar
    22    14    15   ar
    23    15    16   ar
    24    16    17   ar
    25    15    18    1
    26    18    19    1
    27    19    20    1
    28    20    21    1
    29     4     5    1
    30     5     6    1
    31     5     7    1
    32    32    33   ar
    33    33    34   ar
    34    34    24   ar
    35    33    27   ar
    36     7     1    1
    37    17    12   ar
    38    21    14    1
    39     9    10    1
    40     6     8    1
@<TRIPOS>MOLECULE
*****
 36 40 0 0 0
SMALL
GASTEIGER

@<TRIPOS>ATOM
      1 N         143.0023  144.0335  162.4176 N.3     1  UNL1       -0.2703
      2 C         142.4202  144.9012  163.4939 C.3     1  UNL1        0.0736
      3 C         140.9651  145.2637  163.4599 C.3     1  UNL1        0.0356
      4 C         140.0921  144.7587  162.3496 C.3     1  UNL1        0.0843
      5 C         140.6741  143.8910  161.2733 C.3     1  UNL1        0.1407
      6 O         139.8011  143.3860  160.1630 O.3     1  UNL1       -0.3817
      7 C         142.1293  143.5285  161.3073 C.3     1  UNL1        0.1031
      8 H         140.3301  142.8441  159.5568 H       1  UNL1        0.2105
      9 N         138.6370  145.1213  162.3156 N.3     1  UNL1       -0.2915
     10 H         138.3527  145.1069  161.3361 H       1  UNL1        0.1236
     11 C         137.6395  144.2914  163.0682 C.3     1  UNL1        0.1153
     12 C         137.8358  142.8093  163.1891 C.ar    1  UNL1        0.0782
     13 C         138.1514  142.2009  164.5233 C.ar    1  UNL1        0.0562
     14 C         138.3478  140.7186  164.6441 C.ar    1  UNL1        0.1752
     15 C         138.2286  139.8449  163.4308 C.ar    1  UNL1        0.1914
     16 C         137.9130  140.4533  162.0965 C.ar    1  UNL1        0.1384
     17 N         137.7167  141.9355  161.9756 N.ar    1  UNL1       -0.2434
     18 O         138.4250  138.3627  163.5516 O.3     1  UNL1       -0.4668
     19 C         138.7406  137.7543  164.8858 C.3     1  UNL1        0.2527
     20 C         138.8598  138.6281  166.0993 C.3     1  UNL1        0.2526
     21 O         138.6634  140.1102  165.9784 O.3     1  UNL1       -0.4683
     22 C         144.4574  143.6709  162.4516 C.3     1  UNL1        0.0770
     23 C         144.9572  142.6671  163.4479 C.3     1  UNL1        0.0476
     24 C         143.5530  139.1433  161.0269 C.ar    1  UNL1        0.2250
     25 C         142.6054  138.1490  161.6297 C.ar    1  UNL1        0.0593
     26 C         142.1257  138.3294  163.0394 C.ar    1  UNL1        0.0254
     27 C         142.5937  139.5039  163.8464 C.ar    1  UNL1        0.0990
     28 N         142.1141  139.6843  165.2562 N.ar    1  UNL1       -0.2400
     29 C         142.5821  140.8588  166.0632 C.ar    1  UNL1        0.1281
     30 C         143.5298  141.8532  165.4604 C.ar    1  UNL1        0.1567
     31 F         143.9979  143.0277  166.2674 F       1  UNL1       -0.2028
     32 C         144.0095  141.6728  164.0507 C.ar    1  UNL1        0.0274
     33 C         143.5414  140.4982  163.2437 C.ar    1  UNL1        0.1002
     34 N         144.0211  140.3178  161.8339 N.ar    1  UNL1       -0.2104
     35 C         143.4434  139.7895  158.5129 C.3     1  UNL1        0.2542
     36 O         144.0327  138.9629  159.6171 O.3     1  UNL1       -0.4561
@<TRIPOS>BOND
     1    35    36    1
     2    36    24    1
     3    24    25   ar
     4    25    26   ar
     5    26    27   ar
     6    27    28   ar
     7    28    29   ar
     8    29    30   ar
     9    30    31    1
    10    30    32   ar
    11    32    23    1
    12    23    22    1
    13    22     1    1
    14     1     2    1
    15     2     3    1
    16     3     4    1
    17     4     9    1
    18     9    11    1
    19    11    12    1
    20    12    13   ar
    21    13    14   ar
    22    14    15   ar
    23    15    16   ar
    24    16    17   ar
    25    15    18    1
    26    18    19    1
    27    19    20    1
    28    20    21    1
    29     4     5    1
    30     5     6    1
    31     5     7    1
    32    32    33   ar
    33    33    34   ar
    34    34    24   ar
    35    33    27   ar
    36     7     1    1
    37    17    12   ar
    38    21    14    1
    39     9    10    1
    40     6     8    1
@<TRIPOS>MOLECULE
*****
 36 40 0 0 0
SMALL
GASTEIGER

@<TRIPOS>ATOM
      1 N         138.0840  139.8590  162.1401 N.3     1  UNL1       -0.2703
      2 C         137.6586  140.4761  163.4395 C.3     1  UNL1        0.0736
      3 C         137.5395  141.9666  163.5584 C.3     1  UNL1        0.0356
      4 C         137.8458  142.8401  162.3780 C.3     1  UNL1        0.0843
      5 C         138.2712  142.2230  161.0787 C.3     1  UNL1        0.1407
      6 O         138.5775  143.0964  159.8983 O.3     1  UNL1       -0.3817
      7 C         138.3903  140.7325  160.9598 C.3     1  UNL1        0.1031
      8 H         138.8352  142.5428  159.1447 H       1  UNL1        0.2105
      9 N         137.7267  144.3306  162.4970 N.3     1  UNL1       -0.2915
     10 H         137.0250  144.5136  163.2144 H       1  UNL1        0.1236
     11 C         138.9304  145.1535  162.8488 C.3     1  UNL1        0.1153
     12 C         140.3070  144.5910  162.6522 C.ar    1  UNL1        0.0782
     13 C         141.0504  144.0039  163.8151 C.ar    1  UNL1        0.0562
     14 C         142.4270  143.4414  163.6185 C.ar    1  UNL1        0.1752
     15 C         143.0601  143.4661  162.2589 C.ar    1  UNL1        0.1914
     16 C         142.3167  144.0532  161.0959 C.ar    1  UNL1        0.1384
     17 N         140.9401  144.6157  161.2925 N.ar    1  UNL1       -0.2434
     18 O         144.4367  142.9036  162.0622 O.3     1  UNL1       -0.4668
     19 C         145.1802  142.3164  163.2252 C.3     1  UNL1        0.2527
     20 C         144.5470  142.2918  164.5848 C.3     1  UNL1        0.2526
     21 O         143.1705  142.8542  164.7814 O.3     1  UNL1       -0.4683
     22 C         138.2031  138.3686  162.0212 C.3     1  UNL1        0.0770
     23 C         138.9068  137.5847  163.0892 C.3     1  UNL1        0.0476
     24 C         142.7368  137.7633  160.7335 C.ar    1  UNL1        0.2250
     25 C         143.9821  138.3090  161.3670 C.ar    1  UNL1        0.0593
     26 C         143.9508  138.7953  162.7856 C.ar    1  UNL1        0.0254
     27 C         142.6742  138.7358  163.5709 C.ar    1  UNL1        0.0990
     28 N         142.6428  139.2220  164.9895 N.ar    1  UNL1       -0.2400
     29 C         141.3662  139.1625  165.7747 C.ar    1  UNL1        0.1281
     30 C         140.1208  138.6167  165.1413 C.ar    1  UNL1        0.1567
     31 F         138.8442  138.5572  165.9265 F       1  UNL1       -0.2028
     32 C         140.1521  138.1305  163.7226 C.ar    1  UNL1        0.0274
     33 C         141.4288  138.1900  162.9374 C.ar    1  UNL1        0.1002
     34 N         141.4602  137.7038  161.5188 N.ar    1  UNL1       -0.2104
     35 C         142.5772  138.2457  158.1857 C.3     1  UNL1        0.2542
     36 O         142.7681  137.2770  159.3149 O.3     1  UNL1       -0.4561
@<TRIPOS>BOND
     1    35    36    1
     2    36    24    1
     3    24    25   ar
     4    25    26   ar
     5    26    27   ar
     6    27    28   ar
     7    28    29   ar
     8    29    30   ar
     9    30    31    1
    10    30    32   ar
    11    32    23    1
    12    23    22    1
    13    22     1    1
    14     1     2    1
    15     2     3    1
    16     3     4    1
    17     4     9    1
    18     9    11    1
    19    11    12    1
    20    12    13   ar
    21    13    14   ar
    22    14    15   ar
    23    15    16   ar
    24    16    17   ar
    25    15    18    1
    26    18    19    1
    27    19    20    1
    28    20    21    1
    29     4     5    1
    30     5     6    1
    31     5     7    1
    32    32    33   ar
    33    33    34   ar
    34    34    24   ar
    35    33    27   ar
    36     7     1    1
    37    17    12   ar
    38    21    14    1
    39     9    10    1
    40     6     8    1
@<TRIPOS>MOLECULE
*****
 36 40 0 0 0
SMALL
GASTEIGER

@<TRIPOS>ATOM
      1 N         138.0244  140.0246  162.3553 N.3     1  UNL1       -0.2703
      2 C         137.7073  140.7456  163.6318 C.3     1  UNL1        0.0736
      3 C         137.6383  142.2439  163.6496 C.3     1  UNL1        0.0356
      4 C         137.8863  143.0212  162.3908 C.3     1  UNL1        0.0843
      5 C         138.2035  142.3001  161.1143 C.3     1  UNL1        0.1407
      6 O         138.4515  143.0773  159.8556 O.3     1  UNL1       -0.3817
      7 C         138.2725  140.8017  161.0966 C.3     1  UNL1        0.1031
      8 H         138.6409  142.4636  159.1287 H       1  UNL1        0.2105
      9 N         137.8173  144.5195  162.4086 N.3     1  UNL1       -0.2915
     10 H         137.1910  144.7763  163.1717 H       1  UNL1        0.1236
     11 C         139.0695  145.3259  162.5861 C.3     1  UNL1        0.1153
     12 C         140.3663  144.6390  162.8968 C.ar    1  UNL1        0.0782
     13 C         141.3072  144.2754  161.7867 C.ar    1  UNL1        0.0562
     14 C         142.6040  143.5885  162.0975 C.ar    1  UNL1        0.1752
     15 C         142.9598  143.2652  163.5184 C.ar    1  UNL1        0.1914
     16 C         142.0188  143.6288  164.6285 C.ar    1  UNL1        0.1384
     17 N         140.7221  144.3157  164.3178 N.ar    1  UNL1       -0.2434
     18 O         144.2566  142.5782  163.8292 O.3     1  UNL1       -0.4668
     19 C         145.1976  142.2146  162.7191 C.3     1  UNL1        0.2527
     20 C         144.8417  142.5380  161.2982 C.3     1  UNL1        0.2526
     21 O         143.5450  143.2249  160.9874 O.3     1  UNL1       -0.4683
     22 C         138.0935  138.5263  162.3375 C.3     1  UNL1        0.0770
     23 C         138.9893  137.8052  163.3007 C.3     1  UNL1        0.0476
     24 C         140.0182  139.5696  167.3105 C.ar    1  UNL1        0.2250
     25 C         141.4041  140.0802  167.5718 C.ar    1  UNL1        0.0593
     26 C         142.4471  140.0027  166.4966 C.ar    1  UNL1        0.0254
     27 C         142.1042  139.4146  165.1600 C.ar    1  UNL1        0.0990
     28 N         143.1472  139.3372  164.0848 N.ar    1  UNL1       -0.2400
     29 C         142.8042  138.7491  162.7482 C.ar    1  UNL1        0.1281
     30 C         141.4182  138.2384  162.4868 C.ar    1  UNL1        0.1567
     31 F         141.0753  137.6503  161.1502 F       1  UNL1       -0.2028
     32 C         140.3752  138.3159  163.5620 C.ar    1  UNL1        0.0274
     33 C         140.7182  138.9040  164.8987 C.ar    1  UNL1        0.1002
     34 N         139.6752  138.9815  165.9739 N.ar    1  UNL1       -0.2104
     35 C         139.2381  140.4429  169.6297 C.3     1  UNL1        0.2542
     36 O         138.9752  139.6470  168.3857 O.3     1  UNL1       -0.4561
@<TRIPOS>BOND
     1    35    36    1
     2    36    24    1
     3    24    25   ar
     4    25    26   ar
     5    26    27   ar
     6    27    28   ar
     7    28    29   ar
     8    29    30   ar
     9    30    31    1
    10    30    32   ar
    11    32    23    1
    12    23    22    1
    13    22     1    1
    14     1     2    1
    15     2     3    1
    16     3     4    1
    17     4     9    1
    18     9    11    1
    19    11    12    1
    20    12    13   ar
    21    13    14   ar
    22    14    15   ar
    23    15    16   ar
    24    16    17   ar
    25    15    18    1
    26    18    19    1
    27    19    20    1
    28    20    21    1
    29     4     5    1
    30     5     6    1
    31     5     7    1
    32    32    33   ar
    33    33    34   ar
    34    34    24   ar
    35    33    27   ar
    36     7     1    1
    37    17    12   ar
    38    21    14    1
    39     9    10    1
    40     6     8    1
@<TRIPOS>MOLECULE
*****
 36 40 0 0 0
SMALL
GASTEIGER

@<TRIPOS>ATOM
      1 N         142.9029  144.1405  162.3253 N.3     1  UNL1       -0.2703
      2 C         142.9988  143.2531  161.1198 C.3     1  UNL1        0.0736
      3 C         141.7987  143.0449  160.2444 C.3     1  UNL1        0.0356
      4 C         140.5026  143.7242  160.5745 C.3     1  UNL1        0.0843
      5 C         140.4068  144.6117  161.7800 C.3     1  UNL1        0.1407
      6 O         139.1108  145.2910  162.1101 O.3     1  UNL1       -0.3817
      7 C         141.6070  144.8198  162.6554 C.3     1  UNL1        0.1031
      8 H         139.2202  145.8230  162.9138 H       1  UNL1        0.2105
      9 N         139.3025  143.5161  159.6991 N.3     1  UNL1       -0.2915
     10 H         139.6456  143.4451  158.7411 H       1  UNL1        0.1236
     11 C         138.4043  142.3363  159.9259 C.3     1  UNL1        0.1153
     12 C         138.2847  141.7372  161.2958 C.ar    1  UNL1        0.0782
     13 C         138.8263  140.3643  161.5638 C.ar    1  UNL1        0.0562
     14 C         138.7066  139.7651  162.9338 C.ar    1  UNL1        0.1752
     15 C         138.0453  140.5388  164.0356 C.ar    1  UNL1        0.1914
     16 C         137.5037  141.9117  163.7676 C.ar    1  UNL1        0.1384
     17 N         137.6234  142.5109  162.3977 N.ar    1  UNL1       -0.2434
     18 O         137.9257  139.9397  165.4056 O.3     1  UNL1       -0.4668
     19 C         138.4673  138.5668  165.6737 C.3     1  UNL1        0.2527
     20 C         139.1285  137.7931  164.5718 C.3     1  UNL1        0.2526
     21 O         139.2482  138.3922  163.2019 O.3     1  UNL1       -0.4683
     22 C         144.1031  144.3487  163.2007 C.3     1  UNL1        0.0770
     23 C         144.1637  143.7073  164.5553 C.3     1  UNL1        0.0476
     24 C         141.3437  141.7626  167.4735 C.ar    1  UNL1        0.2250
     25 C         141.3064  140.2683  167.5981 C.ar    1  UNL1        0.0593
     26 C         142.2090  139.4221  166.7499 C.ar    1  UNL1        0.0254
     27 C         143.1489  140.0703  165.7772 C.ar    1  UNL1        0.0990
     28 N         144.0515  139.2242  164.9290 N.ar    1  UNL1       -0.2400
     29 C         144.9915  139.8724  163.9563 C.ar    1  UNL1        0.1281
     30 C         145.0289  141.3668  163.8317 C.ar    1  UNL1        0.1567
     31 F         145.9689  142.0150  162.8590 F       1  UNL1       -0.2028
     32 C         144.1263  142.2129  164.6799 C.ar    1  UNL1        0.0274
     33 C         143.1863  141.5647  165.6526 C.ar    1  UNL1        0.1002
     34 N         142.2837  142.4108  166.5008 N.ar    1  UNL1       -0.2104
     35 C         140.0504  142.1459  169.6940 C.3     1  UNL1        0.2542
     36 O         140.4411  142.6087  168.3217 O.3     1  UNL1       -0.4561
@<TRIPOS>BOND
     1    35    36    1
     2    36    24    1
     3    24    25   ar
     4    25    26   ar
     5    26    27   ar
     6    27    28   ar
     7    28    29   ar
     8    29    30   ar
     9    30    31    1
    10    30    32   ar
    11    32    23    1
    12    23    22    1
    13    22     1    1
    14     1     2    1
    15     2     3    1
    16     3     4    1
    17     4     9    1
    18     9    11    1
    19    11    12    1
    20    12    13   ar
    21    13    14   ar
    22    14    15   ar
    23    15    16   ar
    24    16    17   ar
    25    15    18    1
    26    18    19    1
    27    19    20    1
    28    20    21    1
    29     4     5    1
    30     5     6    1
    31     5     7    1
    32    32    33   ar
    33    33    34   ar
    34    34    24   ar
    35    33    27   ar
    36     7     1    1
    37    17    12   ar
    38    21    14    1
    39     9    10    1
    40     6     8    1
@<TRIPOS>MOLECULE
*****
 36 40 0 0 0
SMALL
GASTEIGER

@<TRIPOS>ATOM
      1 N         143.8149  139.4287  163.5849 N.3     1  UNL1       -0.2703
      2 C         143.0911  138.6496  164.6428 C.3     1  UNL1        0.0736
      3 C         141.8515  137.8813  164.2922 C.3     1  UNL1        0.0356
      4 C         141.3356  137.8920  162.8837 C.3     1  UNL1        0.0843
      5 C         142.0595  138.6710  161.8258 C.3     1  UNL1        0.1407
      6 O         141.5437  138.6818  160.4173 O.3     1  UNL1       -0.3817
      7 C         143.2992  139.4394  162.1764 C.3     1  UNL1        0.1031
      8 H         142.1237  139.2288  159.8648 H       1  UNL1        0.2105
      9 N         140.0960  137.1236  162.5331 N.3     1  UNL1       -0.2915
     10 H         140.1217  136.2601  163.0753 H       1  UNL1        0.1236
     11 C         138.7453  137.7361  162.7578 C.3     1  UNL1        0.1153
     12 C         138.5444  139.2074  162.5464 C.ar    1  UNL1        0.0782
     13 C         138.2526  140.1002  163.7160 C.ar    1  UNL1        0.0562
     14 C         138.0517  141.5716  163.5045 C.ar    1  UNL1        0.1752
     15 C         138.1425  142.1502  162.1236 C.ar    1  UNL1        0.1914
     16 C         138.4343  141.2574  160.9541 C.ar    1  UNL1        0.1384
     17 N         138.6352  139.7860  161.1655 N.ar    1  UNL1       -0.2434
     18 O         137.9416  143.6216  161.9121 O.3     1  UNL1       -0.4668
     19 C         137.6499  144.5144  163.0817 C.3     1  UNL1        0.2527
     20 C         137.5590  143.9358  164.4626 C.3     1  UNL1        0.2526
     21 O         137.7600  142.4644  164.6740 O.3     1  UNL1       -0.4683
     22 C         145.0546  140.1971  163.9355 C.3     1  UNL1        0.0770
     23 C         144.9583  141.6473  164.3064 C.3     1  UNL1        0.0476
     24 C         142.2641  141.5274  167.9087 C.ar    1  UNL1        0.2250
     25 C         140.9358  142.2235  167.8753 C.ar    1  UNL1        0.0593
     26 C         140.5056  142.9596  166.6411 C.ar    1  UNL1        0.0254
     27 C         141.4037  142.9996  165.4404 C.ar    1  UNL1        0.0990
     28 N         140.9735  143.7357  164.2063 N.ar    1  UNL1       -0.2400
     29 C         141.8715  143.7757  163.0055 C.ar    1  UNL1        0.1281
     30 C         143.1999  143.0796  163.0388 C.ar    1  UNL1        0.1567
     31 F         144.0979  143.1195  161.8381 F       1  UNL1       -0.2028
     32 C         143.6301  142.3434  164.2730 C.ar    1  UNL1        0.0274
     33 C         142.7319  142.3035  165.4738 C.ar    1  UNL1        0.1002
     34 N         143.1621  141.5674  166.7079 N.ar    1  UNL1       -0.2104
     35 C         141.7481  140.6462  170.2976 C.3     1  UNL1        0.2542
     36 O         142.6942  140.7913  169.1428 O.3     1  UNL1       -0.4561
@<TRIPOS>BOND
     1    35    36    1
     2    36    24    1
     3    24    25   ar
     4    25    26   ar
     5    26    27   ar
     6    27    28   ar
     7    28    29   ar
     8    29    30   ar
     9    30    31    1
    10    30    32   ar
    11    32    23    1
    12    23    22    1
    13    22     1    1
    14     1     2    1
    15     2     3    1
    16     3     4    1
    17     4     9    1
    18     9    11    1
    19    11    12    1
    20    12    13   ar
    21    13    14   ar
    22    14    15   ar
    23    15    16   ar
    24    16    17   ar
    25    15    18    1
    26    18    19    1
    27    19    20    1
    28    20    21    1
    29     4     5    1
    30     5     6    1
    31     5     7    1
    32    32    33   ar
    33    33    34   ar
    34    34    24   ar
    35    33    27   ar
    36     7     1    1
    37    17    12   ar
    38    21    14    1
    39     9    10    1
    40     6     8    1
@<TRIPOS>MOLECULE
*****
 36 40 0 0 0
SMALL
GASTEIGER

@<TRIPOS>ATOM
      1 N         139.2551  143.3872  161.0796 N.3     1  UNL1       -0.2703
      2 C         139.6809  142.3205  160.1148 C.3     1  UNL1        0.0736
      3 C         139.0682  140.9534  160.1898 C.3     1  UNL1        0.0356
      4 C         138.0296  140.6530  161.2297 C.3     1  UNL1        0.0843
      5 C         137.6039  141.7197  162.1945 C.3     1  UNL1        0.1407
      6 O         136.5654  141.4193  163.2344 O.3     1  UNL1       -0.3817
      7 C         138.2167  143.0868  162.1195 C.3     1  UNL1        0.1031
      8 H         136.4074  142.2113  163.7717 H       1  UNL1        0.2105
      9 N         137.4169  139.2859  161.3047 N.3     1  UNL1       -0.2915
     10 H         137.2989  138.9631  160.3444 H       1  UNL1        0.1236
     11 C         138.1202  138.1885  162.0471 C.3     1  UNL1        0.1153
     12 C         138.9385  138.5100  163.2624 C.ar    1  UNL1        0.0782
     13 C         140.4139  138.2395  163.2662 C.ar    1  UNL1        0.0562
     14 C         141.2323  138.5609  164.4816 C.ar    1  UNL1        0.1752
     15 C         140.5752  139.1528  165.6931 C.ar    1  UNL1        0.1914
     16 C         139.0998  139.4233  165.6893 C.ar    1  UNL1        0.1384
     17 N         138.2815  139.1019  164.4740 N.ar    1  UNL1       -0.2434
     18 O         141.3935  139.4743  166.9085 O.3     1  UNL1       -0.4668
     19 C         142.8689  139.2038  166.9122 C.3     1  UNL1        0.2527
     20 C         143.5260  138.6119  165.7006 C.3     1  UNL1        0.2526
     21 O         142.7077  138.2905  164.4853 O.3     1  UNL1       -0.4683
     22 C         139.8678  144.7542  161.0046 C.3     1  UNL1        0.0770
     23 C         140.8076  145.2150  162.0792 C.3     1  UNL1        0.0476
     24 C         144.2685  142.5327  161.0413 C.ar    1  UNL1        0.2250
     25 C         144.7888  141.5546  162.0525 C.ar    1  UNL1        0.0593
     26 C         144.1556  141.4706  163.4097 C.ar    1  UNL1        0.0254
     27 C         143.0020  142.3647  163.7557 C.ar    1  UNL1        0.0990
     28 N         142.3687  142.2808  165.1129 N.ar    1  UNL1       -0.2400
     29 C         141.2151  143.1748  165.4589 C.ar    1  UNL1        0.1281
     30 C         140.6947  144.1530  164.4476 C.ar    1  UNL1        0.1567
     31 F         139.5411  145.0470  164.7936 F       1  UNL1       -0.2028
     32 C         141.3279  144.2369  163.0904 C.ar    1  UNL1        0.0274
     33 C         142.4816  143.3428  162.7445 C.ar    1  UNL1        0.1002
     34 N         143.1148  143.4267  161.3873 N.ar    1  UNL1       -0.2104
     35 C         144.2275  141.9865  158.5016 C.3     1  UNL1        0.2542
     36 O         144.9017  142.6166  159.6841 O.3     1  UNL1       -0.4561
@<TRIPOS>BOND
     1    35    36    1
     2    36    24    1
     3    24    25   ar
     4    25    26   ar
     5    26    27   ar
     6    27    28   ar
     7    28    29   ar
     8    29    30   ar
     9    30    31    1
    10    30    32   ar
    11    32    23    1
    12    23    22    1
    13    22     1    1
    14     1     2    1
    15     2     3    1
    16     3     4    1
    17     4     9    1
    18     9    11    1
    19    11    12    1
    20    12    13   ar
    21    13    14   ar
    22    14    15   ar
    23    15    16   ar
    24    16    17   ar
    25    15    18    1
    26    18    19    1
    27    19    20    1
    28    20    21    1
    29     4     5    1
    30     5     6    1
    31     5     7    1
    32    32    33   ar
    33    33    34   ar
    34    34    24   ar
    35    33    27   ar
    36     7     1    1
    37    17    12   ar
    38    21    14    1
    39     9    10    1
    40     6     8    1
@<TRIPOS>MOLECULE
*****
 36 40 0 0 0
SMALL
GASTEIGER

@<TRIPOS>ATOM
      1 N         138.9757  143.3063  162.7030 N.3     1  UNL1       -0.2703
      2 C         139.5536  143.4624  164.0783 C.3     1  UNL1        0.0736
      3 C         140.8501  144.1924  164.2686 C.3     1  UNL1        0.0356
      4 C         141.5687  144.7662  163.0835 C.3     1  UNL1        0.0843
      5 C         140.9908  144.6100  161.7082 C.3     1  UNL1        0.1407
      6 O         141.7093  145.1838  160.5231 O.3     1  UNL1       -0.3817
      7 C         139.6942  143.8800  161.5179 C.3     1  UNL1        0.1031
      8 H         141.2044  144.9955  159.7166 H       1  UNL1        0.2105
      9 N         142.8652  145.4962  163.2738 N.3     1  UNL1       -0.2915
     10 H         142.8635  145.8554  164.2285 H       1  UNL1        0.1236
     11 C         144.1668  144.7749  163.0849 C.3     1  UNL1        0.1153
     12 C         144.1938  143.2758  163.0397 C.ar    1  UNL1        0.0782
     13 C         143.9921  142.5610  161.7366 C.ar    1  UNL1        0.0562
     14 C         144.0192  141.0618  161.6915 C.ar    1  UNL1        0.1752
     15 C         144.2480  140.2777  162.9495 C.ar    1  UNL1        0.1914
     16 C         144.4498  140.9925  164.2527 C.ar    1  UNL1        0.1384
     17 N         144.4227  142.4916  164.2978 N.ar    1  UNL1       -0.2434
     18 O         144.2751  138.7785  162.9044 O.3     1  UNL1       -0.4668
     19 C         144.0733  138.0637  161.6012 C.3     1  UNL1        0.2527
     20 C         143.8445  138.8479  160.3431 C.3     1  UNL1        0.2526
     21 O         143.8174  140.3470  160.3883 O.3     1  UNL1       -0.4683
     22 C         137.6792  142.5763  162.5127 C.3     1  UNL1        0.0770
     23 C         137.4464  141.2675  163.2076 C.3     1  UNL1        0.0476
     24 C         140.7197  139.9055  165.9790 C.ar    1  UNL1        0.2250
     25 C         141.5530  138.7096  165.6248 C.ar    1  UNL1        0.0593
     26 C         141.2952  137.9677  164.3468 C.ar    1  UNL1        0.0254
     27 C         140.2041  138.4217  163.4231 C.ar    1  UNL1        0.0990
     28 N         139.9463  137.6798  162.1451 N.ar    1  UNL1       -0.2400
     29 C         138.8552  138.1338  161.2213 C.ar    1  UNL1        0.1281
     30 C         138.0219  139.3297  161.5755 C.ar    1  UNL1        0.1567
     31 F         136.9308  139.7837  160.6517 F       1  UNL1       -0.2028
     32 C         138.2797  140.0716  162.8534 C.ar    1  UNL1        0.0274
     33 C         139.3708  139.6176  163.7772 C.ar    1  UNL1        0.1002
     34 N         139.6286  140.3595  165.0552 N.ar    1  UNL1       -0.2104
     35 C         140.8738  139.9340  168.5723 C.3     1  UNL1        0.2542
     36 O         140.9774  140.6474  167.2569 O.3     1  UNL1       -0.4561
@<TRIPOS>BOND
     1    35    36    1
     2    36    24    1
     3    24    25   ar
     4    25    26   ar
     5    26    27   ar
     6    27    28   ar
     7    28    29   ar
     8    29    30   ar
     9    30    31    1
    10    30    32   ar
    11    32    23    1
    12    23    22    1
    13    22     1    1
    14     1     2    1
    15     2     3    1
    16     3     4    1
    17     4     9    1
    18     9    11    1
    19    11    12    1
    20    12    13   ar
    21    13    14   ar
    22    14    15   ar
    23    15    16   ar
    24    16    17   ar
    25    15    18    1
    26    18    19    1
    27    19    20    1
    28    20    21    1
    29     4     5    1
    30     5     6    1
    31     5     7    1
    32    32    33   ar
    33    33    34   ar
    34    34    24   ar
    35    33    27   ar
    36     7     1    1
    37    17    12   ar
    38    21    14    1
    39     9    10    1
    40     6     8    1
@<TRIPOS>MOLECULE
*****
 36 40 0 0 0
SMALL
GASTEIGER

@<TRIPOS>ATOM
      1 N         139.9604  143.8515  163.9778 N.3     1  UNL1       -0.2703
      2 C         140.5494  143.1220  165.1486 C.3     1  UNL1        0.0736
      3 C         142.0366  142.9634  165.2625 C.3     1  UNL1        0.0356
      4 C         142.9349  143.5346  164.2056 C.3     1  UNL1        0.0843
      5 C         142.3458  144.2641  163.0348 C.3     1  UNL1        0.1407
      6 O         143.2440  144.8352  161.9779 O.3     1  UNL1       -0.3817
      7 C         140.8585  144.4226  162.9209 C.3     1  UNL1        0.1031
      8 H         142.7068  145.2709  161.2979 H       1  UNL1        0.2105
      9 N         144.4221  143.3760  164.3195 N.3     1  UNL1       -0.2915
     10 H         144.6901  143.7564  165.2272 H       1  UNL1        0.1236
     11 C         145.0408  142.0131  164.2212 C.3     1  UNL1        0.1153
     12 C         144.4306  140.9751  163.3268 C.ar    1  UNL1        0.0782
     13 C         144.4498  141.1624  161.8386 C.ar    1  UNL1        0.0562
     14 C         143.8395  140.1243  160.9442 C.ar    1  UNL1        0.1752
     15 C         143.2100  138.8990  161.5378 C.ar    1  UNL1        0.1914
     16 C         143.1908  138.7118  163.0260 C.ar    1  UNL1        0.1384
     17 N         143.8010  139.7498  163.9204 N.ar    1  UNL1       -0.2434
     18 O         142.5997  137.8610  160.6434 O.3     1  UNL1       -0.4668
     19 C         142.6190  138.0482  159.1552 C.3     1  UNL1        0.2527
     20 C         143.2485  139.2735  158.5615 C.3     1  UNL1        0.2526
     21 O         143.8588  140.3115  159.4560 O.3     1  UNL1       -0.4683
     22 C         138.4731  144.0100  163.8640 C.3     1  UNL1        0.0770
     23 C         137.5834  142.8040  163.9263 C.3     1  UNL1        0.0476
     24 C         138.4680  138.9748  166.1182 C.ar    1  UNL1        0.2250
     25 C         138.8273  137.7371  165.3507 C.ar    1  UNL1        0.0593
     26 C         138.8918  137.7759  163.8526 C.ar    1  UNL1        0.0254
     27 C         138.5970  139.0523  163.1219 C.ar    1  UNL1        0.0990
     28 N         138.6615  139.0910  161.6238 N.ar    1  UNL1       -0.2400
     29 C         138.3666  140.3674  160.8932 C.ar    1  UNL1        0.1281
     30 C         138.0072  141.6051  161.6607 C.ar    1  UNL1        0.1567
     31 F         137.7124  142.8815  160.9301 F       1  UNL1       -0.2028
     32 C         137.9427  141.5664  163.1588 C.ar    1  UNL1        0.0274
     33 C         138.2376  140.2899  163.8894 C.ar    1  UNL1        0.1002
     34 N         138.1731  140.2511  165.3876 N.ar    1  UNL1       -0.2104
     35 C         139.1815  139.9301  168.4264 C.3     1  UNL1        0.2542
     36 O         138.4035  138.9360  167.6163 O.3     1  UNL1       -0.4561
@<TRIPOS>BOND
     1    35    36    1
     2    36    24    1
     3    24    25   ar
     4    25    26   ar
     5    26    27   ar
     6    27    28   ar
     7    28    29   ar
     8    29    30   ar
     9    30    31    1
    10    30    32   ar
    11    32    23    1
    12    23    22    1
    13    22     1    1
    14     1     2    1
    15     2     3    1
    16     3     4    1
    17     4     9    1
    18     9    11    1
    19    11    12    1
    20    12    13   ar
    21    13    14   ar
    22    14    15   ar
    23    15    16   ar
    24    16    17   ar
    25    15    18    1
    26    18    19    1
    27    19    20    1
    28    20    21    1
    29     4     5    1
    30     5     6    1
    31     5     7    1
    32    32    33   ar
    33    33    34   ar
    34    34    24   ar
    35    33    27   ar
    36     7     1    1
    37    17    12   ar
    38    21    14    1
    39     9    10    1
    40     6     8    1
