@<TRIPOS>MOLECULE
*****
 33 36 0 0 0
SMALL
GASTEIGER

@<TRIPOS>ATOM
      1 N         140.3651  138.6631  159.8409 N.3     1  UNL1       -0.2724
      2 C         139.9815  138.4572  158.4055 C.3     1  UNL1        0.0758
      3 C         140.9915  137.9360  157.4265 C.3     1  UNL1        0.0609
      4 C         142.3851  137.6207  157.8830 C.3     1  UNL1        0.1687
      5 C         142.7687  137.8266  159.3184 C.3     1  UNL1        0.0609
      6 C         141.7588  138.3477  160.2974 C.3     1  UNL1        0.0758
      7 C         139.3552  139.1843  160.8199 C.3     1  UNL1        0.0722
      8 N         140.4289  139.5625  165.1735 N.pl3   1  UNL1       -0.2932
      9 C         140.6778  140.7078  164.2374 C.3     1  UNL1        0.0922
     10 C         140.3199  140.5818  162.7862 C.3     1  UNL1        0.0229
     11 C         139.7131  139.3104  162.2711 C.3     1  UNL1        0.0194
     12 C         139.4643  138.1650  163.2072 C.3     1  UNL1        0.0229
     13 C         139.8222  138.2911  164.6584 C.3     1  UNL1        0.0922
     14 CA        140.1029  140.2300  169.0720 C.ar    1  UNL1        0.0966
     15 C         141.5025  139.9407  169.5271 C.ar    1  UNL1        0.0204
     16 C         142.5443  139.5254  168.5311 C.ar    1  UNL1        0.0044
     17 C         142.1865  139.3993  167.0799 C.ar    1  UNL1        0.0343
     18 C         140.7868  139.6886  166.6248 C.ar    1  UNL1        0.1317
     19 N         139.7450  140.1039  167.6208 N.ar    1  UNL1       -0.2295
     20 O         137.9630  139.6955  170.4450 O.co2   1  UNL1       -0.5430
     21 C         139.0610  140.6453  170.0680 C.2     1  UNL1        0.0905
     22 OXT       139.1172  142.0104  170.6871 O.co2   1  UNL1       -0.5430
     23 O         143.3950  137.0996  156.9040 O.3     1  UNL1       -0.4790
     24 C         143.1469  135.8049  156.1882 C.ar    1  UNL1        0.1392
     25 C         142.8521  135.8057  154.7175 C.ar    1  UNL1        0.0367
     26 C         142.6041  134.5110  154.0016 C.ar    1  UNL1        0.0021
     27 C         142.6509  133.2157  154.7565 C.ar    1  UNL1        0.0177
     28 C         142.9457  133.2149  156.2273 C.ar    1  UNL1        0.0590
     29 CL        142.9925  131.9196  156.9821 Cl      1  UNL1       -0.0824
     30 C         143.1937  134.5096  156.9431 C.ar    1  UNL1        0.0480
     31 C         142.4028  131.9211  154.0406 C.3     1  UNL1        0.1644
     32 O         143.4650  131.3371  153.1571 O.3     1  UNL1       -0.3772
     33 H         143.6075  131.9195  152.3946 H       1  UNL1        0.2109
@<TRIPOS>UNITY_ATOM_ATTR
20 1
charge -1
@<TRIPOS>BOND
     1    20    21   ar
     2    21    22   ar
     3    21    14    1
     4    14    15   ar
     5    15    16   ar
     6    16    17   ar
     7    17    18   ar
     8    18     8    1
     9     8     9    1
    10     9    10    1
    11    10    11    1
    12    11     7    1
    13     7     1    1
    14     1     2    1
    15     2     3    1
    16     3     4    1
    17     4    23    1
    18    23    24    1
    19    24    25   ar
    20    25    26   ar
    21    26    27   ar
    22    27    31    1
    23    31    32    1
    24    27    28   ar
    25    28    29    1
    26    28    30   ar
    27     4     5    1
    28     5     6    1
    29    11    12    1
    30    12    13    1
    31    18    19   ar
    32    19    14   ar
    33    13     8    1
    34     6     1    1
    35    30    24   ar
    36    32    33    1
@<TRIPOS>MOLECULE
*****
 33 36 0 0 0
SMALL
GASTEIGER

@<TRIPOS>ATOM
      1 N         139.0596  138.3302  161.8287 N.3     1  UNL1       -0.2724
      2 C         137.7815  139.1101  161.7388 C.3     1  UNL1        0.0758
      3 C         137.4948  139.9427  160.5244 C.3     1  UNL1        0.0609
      4 C         138.4862  139.9954  159.4000 C.3     1  UNL1        0.1687
      5 C         139.7644  139.2154  159.4900 C.3     1  UNL1        0.0609
      6 C         140.0511  138.3829  160.7043 C.3     1  UNL1        0.0758
      7 C         139.3463  137.4976  163.0430 C.3     1  UNL1        0.0722
      8 N         140.6212  139.4767  166.8781 N.pl3   1  UNL1       -0.2932
      9 C         139.1639  139.2715  166.5885 C.3     1  UNL1        0.0922
     10 C         138.7389  138.6117  165.3101 C.3     1  UNL1        0.0229
     11 C         139.7713  138.1573  164.3214 C.3     1  UNL1        0.0194
     12 C         141.2287  138.3626  164.6111 C.3     1  UNL1        0.0229
     13 C         141.6537  139.0222  165.8894 C.3     1  UNL1        0.0922
     14 CA        140.7446  142.0118  169.9291 C.ar    1  UNL1        0.0966
     15 C         141.8961  141.4558  170.7132 C.ar    1  UNL1        0.0204
     16 C         142.6227  140.2402  170.2189 C.ar    1  UNL1        0.0044
     17 C         142.1978  139.5805  168.9406 C.ar    1  UNL1        0.0343
     18 C         141.0462  140.1364  168.1565 C.ar    1  UNL1        0.1317
     19 N         140.3196  141.3520  168.6508 N.ar    1  UNL1       -0.2295
     20 O         139.2373  143.1661  171.7026 O.co2   1  UNL1       -0.5430
     21 C         140.0180  143.2274  170.4233 C.2     1  UNL1        0.0905
     22 OXT       140.0721  144.5044  169.6383 O.co2   1  UNL1       -0.5430
     23 O         138.1995  140.8279  158.1857 O.3     1  UNL1       -0.4790
     24 C         138.9476  142.1085  157.9606 C.ar    1  UNL1        0.1392
     25 C         139.3896  142.4857  156.5778 C.ar    1  UNL1        0.0367
     26 C         140.1377  143.7662  156.3527 C.ar    1  UNL1        0.0021
     27 C         140.4436  144.6695  157.5105 C.ar    1  UNL1        0.0177
     28 C         140.0016  144.2923  158.8934 C.ar    1  UNL1        0.0590
     29 CL        140.3075  145.1956  160.0511 Cl      1  UNL1       -0.0824
     30 C         139.2535  143.0118  159.1185 C.ar    1  UNL1        0.0480
     31 C         141.1917  145.9501  157.2854 C.3     1  UNL1        0.1644
     32 O         142.6213  146.0705  157.7232 O.3     1  UNL1       -0.3772
     33 H         142.6681  146.0231  158.6909 H       1  UNL1        0.2109
@<TRIPOS>UNITY_ATOM_ATTR
20 1
charge -1
@<TRIPOS>BOND
     1    20    21   ar
     2    21    22   ar
     3    21    14    1
     4    14    15   ar
     5    15    16   ar
     6    16    17   ar
     7    17    18   ar
     8    18     8    1
     9     8     9    1
    10     9    10    1
    11    10    11    1
    12    11     7    1
    13     7     1    1
    14     1     2    1
    15     2     3    1
    16     3     4    1
    17     4    23    1
    18    23    24    1
    19    24    25   ar
    20    25    26   ar
    21    26    27   ar
    22    27    31    1
    23    31    32    1
    24    27    28   ar
    25    28    29    1
    26    28    30   ar
    27     4     5    1
    28     5     6    1
    29    11    12    1
    30    12    13    1
    31    18    19   ar
    32    19    14   ar
    33    13     8    1
    34     6     1    1
    35    30    24   ar
    36    32    33    1
@<TRIPOS>MOLECULE
*****
 33 36 0 0 0
SMALL
GASTEIGER

@<TRIPOS>ATOM
      1 N         138.7339  138.7695  162.8673 N.3     1  UNL1       -0.2724
      2 C         138.2413  140.0139  163.5447 C.3     1  UNL1        0.0758
      3 C         138.1490  140.0670  165.0409 C.3     1  UNL1        0.0609
      4 C         138.5492  138.8756  165.8597 C.3     1  UNL1        0.1687
      5 C         139.0417  137.6312  165.1824 C.3     1  UNL1        0.0609
      6 C         139.1340  137.5781  163.6862 C.3     1  UNL1        0.0758
      7 C         138.8262  138.7164  161.3711 C.3     1  UNL1        0.0722
      8 N         139.9594  142.4042  159.0546 N.pl3   1  UNL1       -0.2932
      9 C         138.5386  141.9236  159.0513 C.3     1  UNL1        0.0922
     10 C         138.1608  140.6943  159.8235 C.3     1  UNL1        0.0229
     11 C         139.2039  139.9457  160.5990 C.3     1  UNL1        0.0194
     12 C         140.6249  140.4263  160.6022 C.3     1  UNL1        0.0229
     13 C         141.0026  141.6555  159.8301 C.3     1  UNL1        0.0922
     14 CA        139.7364  145.4783  156.5546 C.ar    1  UNL1        0.0966
     15 C         141.0927  146.0920  156.7382 C.ar    1  UNL1        0.0204
     16 C         142.0713  145.4764  157.6939 C.ar    1  UNL1        0.0044
     17 C         141.6936  144.2472  158.4661 C.ar    1  UNL1        0.0343
     18 C         140.3372  143.6335  158.2825 C.ar    1  UNL1        0.1317
     19 N         139.3587  144.2491  157.3267 N.ar    1  UNL1       -0.2295
     20 O         138.9070  147.5305  155.1942 O.co2   1  UNL1       -0.5430
     21 C         138.7578  146.0938  155.5988 C.2     1  UNL1        0.0905
     22 OXT       137.6300  145.2728  155.0477 O.co2   1  UNL1       -0.5430
     23 O         138.4569  138.9287  167.3559 O.3     1  UNL1       -0.4790
     24 C         139.3418  139.8607  168.1294 C.ar    1  UNL1        0.1392
     25 C         138.8990  140.3797  169.4652 C.ar    1  UNL1        0.0367
     26 C         139.7839  141.3117  170.2387 C.ar    1  UNL1        0.0021
     27 C         141.1117  141.7247  169.6763 C.ar    1  UNL1        0.0177
     28 C         141.5547  141.2057  168.3404 C.ar    1  UNL1        0.0590
     29 CL        142.8825  141.6187  167.7780 Cl      1  UNL1       -0.0824
     30 C         140.6697  140.2737  167.5670 C.ar    1  UNL1        0.0480
     31 C         141.9967  142.6567  170.4498 C.3     1  UNL1        0.1644
     32 O         142.2981  142.3800  171.8929 O.3     1  UNL1       -0.3772
     33 H         141.4840  142.4592  172.4142 H       1  UNL1        0.2109
@<TRIPOS>UNITY_ATOM_ATTR
20 1
charge -1
@<TRIPOS>BOND
     1    20    21   ar
     2    21    22   ar
     3    21    14    1
     4    14    15   ar
     5    15    16   ar
     6    16    17   ar
     7    17    18   ar
     8    18     8    1
     9     8     9    1
    10     9    10    1
    11    10    11    1
    12    11     7    1
    13     7     1    1
    14     1     2    1
    15     2     3    1
    16     3     4    1
    17     4    23    1
    18    23    24    1
    19    24    25   ar
    20    25    26   ar
    21    26    27   ar
    22    27    31    1
    23    31    32    1
    24    27    28   ar
    25    28    29    1
    26    28    30   ar
    27     4     5    1
    28     5     6    1
    29    11    12    1
    30    12    13    1
    31    18    19   ar
    32    19    14   ar
    33    13     8    1
    34     6     1    1
    35    30    24   ar
    36    32    33    1
@<TRIPOS>MOLECULE
*****
 33 36 0 0 0
SMALL
GASTEIGER

@<TRIPOS>ATOM
      1 N         139.9164  138.3987  163.2296 N.3     1  UNL1       -0.2724
      2 C         140.5936  139.6166  163.7849 C.3     1  UNL1        0.0758
      3 C         140.3796  140.0061  165.2176 C.3     1  UNL1        0.0609
      4 C         139.4884  139.1778  166.0949 C.3     1  UNL1        0.1687
      5 C         138.8112  137.9600  165.5396 C.3     1  UNL1        0.0609
      6 C         139.0252  137.5704  164.1070 C.3     1  UNL1        0.0758
      7 C         140.1304  138.0092  161.7970 C.3     1  UNL1        0.0722
      8 N         138.1427  140.3503  158.5078 N.pl3   1  UNL1       -0.2932
      9 C         137.4498  140.1726  159.8262 C.3     1  UNL1        0.0922
     10 C         138.1123  139.3923  160.9227 C.3     1  UNL1        0.0229
     11 C         139.4678  138.7895  160.7006 C.3     1  UNL1        0.0194
     12 C         140.1608  138.9672  159.3822 C.3     1  UNL1        0.0229
     13 C         139.4983  139.7475  158.2858 C.3     1  UNL1        0.0922
     14 CA        135.6882  141.3020  155.5380 C.ar    1  UNL1        0.0966
     15 C         136.1551  142.6912  155.2186 C.ar    1  UNL1        0.0204
     16 C         137.2845  143.3002  155.9956 C.ar    1  UNL1        0.0044
     17 C         137.9471  142.5199  157.0920 C.ar    1  UNL1        0.0343
     18 C         137.4802  141.1306  157.4114 C.ar    1  UNL1        0.1317
     19 N         136.3508  140.5217  156.6344 N.ar    1  UNL1       -0.2295
     20 O         134.5529  140.7681  153.2630 O.co2   1  UNL1       -0.5430
     21 C         134.5588  140.6931  154.7611 C.2     1  UNL1        0.0905
     22 OXT       133.4354  140.0093  155.4822 O.co2   1  UNL1       -0.5430
     23 O         139.2744  139.5673  167.5275 O.3     1  UNL1       -0.4790
     24 C         140.2821  140.4291  168.2290 C.ar    1  UNL1        0.1392
     25 C         141.6762  139.9228  168.4523 C.ar    1  UNL1        0.0367
     26 C         142.6838  140.7846  169.1537 C.ar    1  UNL1        0.0021
     27 C         142.2973  142.1527  169.6319 C.ar    1  UNL1        0.0177
     28 C         140.9031  142.6592  169.4086 C.ar    1  UNL1        0.0590
     29 CL        140.5165  144.0273  169.8867 Cl      1  UNL1       -0.0824
     30 C         139.8955  141.7974  168.7071 C.ar    1  UNL1        0.0480
     31 C         143.3049  143.0145  170.3333 C.3     1  UNL1        0.1644
     32 O         144.7684  142.7108  170.2080 O.3     1  UNL1       -0.3772
     33 H         144.9595  141.8596  170.6322 H       1  UNL1        0.2109
@<TRIPOS>UNITY_ATOM_ATTR
20 1
charge -1
@<TRIPOS>BOND
     1    20    21   ar
     2    21    22   ar
     3    21    14    1
     4    14    15   ar
     5    15    16   ar
     6    16    17   ar
     7    17    18   ar
     8    18     8    1
     9     8     9    1
    10     9    10    1
    11    10    11    1
    12    11     7    1
    13     7     1    1
    14     1     2    1
    15     2     3    1
    16     3     4    1
    17     4    23    1
    18    23    24    1
    19    24    25   ar
    20    25    26   ar
    21    26    27   ar
    22    27    31    1
    23    31    32    1
    24    27    28   ar
    25    28    29    1
    26    28    30   ar
    27     4     5    1
    28     5     6    1
    29    11    12    1
    30    12    13    1
    31    18    19   ar
    32    19    14   ar
    33    13     8    1
    34     6     1    1
    35    30    24   ar
    36    32    33    1
@<TRIPOS>MOLECULE
*****
 33 36 0 0 0
SMALL
GASTEIGER

@<TRIPOS>ATOM
      1 N         142.1574  144.0544  160.2807 N.3     1  UNL1       -0.2724
      2 C         142.2776  143.1799  159.0679 C.3     1  UNL1        0.0758
      3 C         141.3858  143.4123  157.8843 C.3     1  UNL1        0.0609
      4 C         140.3740  144.5191  157.9135 C.3     1  UNL1        0.1687
      5 C         140.2538  145.3937  159.1263 C.3     1  UNL1        0.0609
      6 C         141.1455  145.1613  160.3098 C.3     1  UNL1        0.0758
      7 C         143.0491  143.8221  161.4642 C.3     1  UNL1        0.0722
      8 N         141.3134  142.2878  165.3221 N.pl3   1  UNL1       -0.2932
      9 C         142.0678  141.3592  164.4174 C.3     1  UNL1        0.0922
     10 C         142.6464  141.8706  163.1314 C.3     1  UNL1        0.0229
     11 C         142.4705  143.3106  162.7502 C.3     1  UNL1        0.0194
     12 C         141.7161  144.2393  163.6549 C.3     1  UNL1        0.0229
     13 C         141.1376  143.7279  164.9409 C.3     1  UNL1        0.0922
     14 CA        140.2920  142.0724  169.1510 C.ar    1  UNL1        0.0966
     15 C         139.5777  140.7538  169.1801 C.ar    1  UNL1        0.0204
     16 C         139.4419  139.9465  167.9232 C.ar    1  UNL1        0.0044
     17 C         140.0204  140.4578  166.6372 C.ar    1  UNL1        0.0343
     18 C         140.7348  141.7764  166.6081 C.ar    1  UNL1        0.1317
     19 N         140.8706  142.5837  167.8651 N.ar    1  UNL1       -0.2295
     20 O         140.5334  144.3740  170.3318 O.co2   1  UNL1       -0.5430
     21 C         140.4278  142.8797  170.4079 C.2     1  UNL1        0.0905
     22 OXT       140.4580  142.1927  171.7410 O.co2   1  UNL1       -0.5430
     23 O         139.4823  144.7515  156.7300 O.3     1  UNL1       -0.4790
     24 C         139.7335  145.9162  155.8188 C.ar    1  UNL1        0.1392
     25 C         140.6626  145.7678  154.6506 C.ar    1  UNL1        0.0367
     26 C         140.9139  146.9326  153.7394 C.ar    1  UNL1        0.0021
     27 C         140.2360  148.2457  153.9965 C.ar    1  UNL1        0.0177
     28 C         139.3068  148.3942  155.1647 C.ar    1  UNL1        0.0590
     29 CL        138.6290  149.7073  155.4217 Cl      1  UNL1       -0.0824
     30 C         139.0556  147.2294  156.0759 C.ar    1  UNL1        0.0480
     31 C         140.4872  149.4105  153.0853 C.3     1  UNL1        0.1644
     32 O         139.3797  149.9418  152.2245 O.3     1  UNL1       -0.3772
     33 H         139.1313  149.2726  151.5677 H       1  UNL1        0.2109
@<TRIPOS>UNITY_ATOM_ATTR
20 1
charge -1
@<TRIPOS>BOND
     1    20    21   ar
     2    21    22   ar
     3    21    14    1
     4    14    15   ar
     5    15    16   ar
     6    16    17   ar
     7    17    18   ar
     8    18     8    1
     9     8     9    1
    10     9    10    1
    11    10    11    1
    12    11     7    1
    13     7     1    1
    14     1     2    1
    15     2     3    1
    16     3     4    1
    17     4    23    1
    18    23    24    1
    19    24    25   ar
    20    25    26   ar
    21    26    27   ar
    22    27    31    1
    23    31    32    1
    24    27    28   ar
    25    28    29    1
    26    28    30   ar
    27     4     5    1
    28     5     6    1
    29    11    12    1
    30    12    13    1
    31    18    19   ar
    32    19    14   ar
    33    13     8    1
    34     6     1    1
    35    30    24   ar
    36    32    33    1
@<TRIPOS>MOLECULE
*****
 33 36 0 0 0
SMALL
GASTEIGER

@<TRIPOS>ATOM
      1 N         142.6286  138.0202  162.5318 N.3     1  UNL1       -0.2724
      2 C         143.8132  138.8246  162.9784 C.3     1  UNL1        0.0758
      3 C         143.9980  139.1438  164.4325 C.3     1  UNL1        0.0609
      4 C         142.9982  138.6585  165.4398 C.3     1  UNL1        0.1687
      5 C         141.8135  137.8541  164.9932 C.3     1  UNL1        0.0609
      6 C         141.6287  137.5349  163.5393 C.3     1  UNL1        0.0758
      7 C         142.4437  137.7011  161.0779 C.3     1  UNL1        0.0722
      8 N         139.5947  140.1337  158.5849 N.pl3   1  UNL1       -0.2932
      9 C         141.0652  140.1672  158.2908 C.3     1  UNL1        0.0922
     10 C         142.0149  139.3563  159.1218 C.3     1  UNL1        0.0229
     11 C         141.4941  138.5119  160.2469 C.3     1  UNL1        0.0194
     12 C         140.0235  138.4785  160.5410 C.3     1  UNL1        0.0229
     13 C         139.0739  139.2894  159.7100 C.3     1  UNL1        0.0922
     14 CA        136.3631  141.1853  156.5353 C.ar    1  UNL1        0.0966
     15 C         136.7455  142.5663  156.0920 C.ar    1  UNL1        0.0204
     16 C         138.0776  143.1365  156.4797 C.ar    1  UNL1        0.0044
     17 C         139.0274  142.3257  157.3107 C.ar    1  UNL1        0.0343
     18 C         138.6450  140.9446  157.7539 C.ar    1  UNL1        0.1317
     19 N         137.3128  140.3744  157.3662 N.ar    1  UNL1       -0.2295
     20 O         134.2400  139.8152  157.1398 O.co2   1  UNL1       -0.5430
     21 C         135.0310  140.6151  156.1475 C.2     1  UNL1        0.0905
     22 OXT       134.4898  140.8447  154.7676 O.co2   1  UNL1       -0.5430
     23 O         143.1830  138.9777  166.8937 O.3     1  UNL1       -0.4790
     24 C         142.4638  140.1447  167.5027 C.ar    1  UNL1        0.1392
     25 C         142.5111  140.3638  168.9858 C.ar    1  UNL1        0.0367
     26 C         141.7919  141.5308  169.5948 C.ar    1  UNL1        0.0021
     27 C         141.0255  142.4787  168.7207 C.ar    1  UNL1        0.0177
     28 C         140.9781  142.2595  167.2375 C.ar    1  UNL1        0.0590
     29 CL        140.2117  143.2074  166.3634 Cl      1  UNL1       -0.0824
     30 C         141.6973  141.0925  166.6285 C.ar    1  UNL1        0.0480
     31 C         140.3063  143.6457  169.3298 C.3     1  UNL1        0.1644
     32 O         139.7629  143.5470  170.7243 O.3     1  UNL1       -0.3772
     33 H         139.0518  142.8877  170.7484 H       1  UNL1        0.2109
@<TRIPOS>UNITY_ATOM_ATTR
20 1
charge -1
@<TRIPOS>BOND
     1    20    21   ar
     2    21    22   ar
     3    21    14    1
     4    14    15   ar
     5    15    16   ar
     6    16    17   ar
     7    17    18   ar
     8    18     8    1
     9     8     9    1
    10     9    10    1
    11    10    11    1
    12    11     7    1
    13     7     1    1
    14     1     2    1
    15     2     3    1
    16     3     4    1
    17     4    23    1
    18    23    24    1
    19    24    25   ar
    20    25    26   ar
    21    26    27   ar
    22    27    31    1
    23    31    32    1
    24    27    28   ar
    25    28    29    1
    26    28    30   ar
    27     4     5    1
    28     5     6    1
    29    11    12    1
    30    12    13    1
    31    18    19   ar
    32    19    14   ar
    33    13     8    1
    34     6     1    1
    35    30    24   ar
    36    32    33    1
@<TRIPOS>MOLECULE
*****
 33 36 0 0 0
SMALL
GASTEIGER

@<TRIPOS>ATOM
      1 N         140.0150  145.0196  160.1212 N.3     1  UNL1       -0.2724
      2 C         139.6234  143.5743  160.0326 C.3     1  UNL1        0.0758
      3 C         139.5083  142.9091  158.6930 C.3     1  UNL1        0.0609
      4 C         139.7849  143.6892  157.4421 C.3     1  UNL1        0.1687
      5 C         140.1765  145.1345  157.5306 C.3     1  UNL1        0.0609
      6 C         140.2916  145.7997  158.8701 C.3     1  UNL1        0.0758
      7 C         140.1301  145.6847  161.4606 C.3     1  UNL1        0.0722
      8 N         140.0713  143.2061  165.2160 N.pl3   1  UNL1       -0.2932
      9 C         141.3716  143.4868  164.5230 C.3     1  UNL1        0.0922
     10 C         141.3912  144.3131  163.2712 C.3     1  UNL1        0.0229
     11 C         140.1105  144.8585  162.7124 C.3     1  UNL1        0.0194
     12 C         138.8101  144.5777  163.4055 C.3     1  UNL1        0.0229
     13 C         138.7906  143.7515  164.6573 C.3     1  UNL1        0.0922
     14 CA        140.3756  142.1814  169.0380 C.ar    1  UNL1        0.0966
     15 C         140.0124  140.7276  168.9714 C.ar    1  UNL1        0.0204
     16 C         139.6689  140.0999  167.6531 C.ar    1  UNL1        0.0044
     17 C         139.6885  140.9260  166.4013 C.ar    1  UNL1        0.0343
     18 C         140.0517  142.3799  166.4679 C.ar    1  UNL1        0.1317
     19 N         140.3952  143.0075  167.7862 N.ar    1  UNL1       -0.2295
     20 O         139.7030  142.8409  171.4593 O.co2   1  UNL1       -0.5430
     21 C         140.7191  142.8090  170.3563 C.2     1  UNL1        0.0905
     22 OXT       142.0787  143.4049  170.5717 O.co2   1  UNL1       -0.5430
     23 O         139.6698  143.0240  156.1026 O.3     1  UNL1       -0.4790
     24 C         138.4904  142.1484  155.7989 C.ar    1  UNL1        0.1392
     25 C         137.0989  142.6938  155.9259 C.ar    1  UNL1        0.0367
     26 C         135.9195  141.8182  155.6222 C.ar    1  UNL1        0.0021
     27 C         136.1316  140.3972  155.1914 C.ar    1  UNL1        0.0177
     28 C         137.5232  139.8517  155.0644 C.ar    1  UNL1        0.0590
     29 CL        137.7353  138.4306  154.6336 Cl      1  UNL1       -0.0824
     30 C         138.7026  140.7273  155.3681 C.ar    1  UNL1        0.0480
     31 C         134.9522  139.5215  154.8877 C.3     1  UNL1        0.1644
     32 O         134.4292  138.5793  155.9310 O.3     1  UNL1       -0.3772
     33 H         135.0946  137.8976  156.1138 H       1  UNL1        0.2109
@<TRIPOS>UNITY_ATOM_ATTR
20 1
charge -1
@<TRIPOS>BOND
     1    20    21   ar
     2    21    22   ar
     3    21    14    1
     4    14    15   ar
     5    15    16   ar
     6    16    17   ar
     7    17    18   ar
     8    18     8    1
     9     8     9    1
    10     9    10    1
    11    10    11    1
    12    11     7    1
    13     7     1    1
    14     1     2    1
    15     2     3    1
    16     3     4    1
    17     4    23    1
    18    23    24    1
    19    24    25   ar
    20    25    26   ar
    21    26    27   ar
    22    27    31    1
    23    31    32    1
    24    27    28   ar
    25    28    29    1
    26    28    30   ar
    27     4     5    1
    28     5     6    1
    29    11    12    1
    30    12    13    1
    31    18    19   ar
    32    19    14   ar
    33    13     8    1
    34     6     1    1
    35    30    24   ar
    36    32    33    1
@<TRIPOS>MOLECULE
*****
 33 36 0 0 0
SMALL
GASTEIGER

@<TRIPOS>ATOM
      1 N         138.5191  138.9404  160.7470 N.3     1  UNL1       -0.2724
      2 C         139.6977  138.4715  159.9464 C.3     1  UNL1        0.0758
      3 C         139.9543  139.0438  158.5838 C.3     1  UNL1        0.0609
      4 C         139.0323  140.0849  158.0217 C.3     1  UNL1        0.1687
      5 C         137.8536  140.5538  158.8223 C.3     1  UNL1        0.0609
      6 C         137.5970  139.9816  160.1849 C.3     1  UNL1        0.0758
      7 C         138.2624  138.3682  162.1095 C.3     1  UNL1        0.0722
      8 N         140.2817  140.1499  165.7148 N.pl3   1  UNL1       -0.2932
      9 C         140.2148  140.9257  164.4328 C.3     1  UNL1        0.0922
     10 C         139.5417  140.3318  163.2310 C.3     1  UNL1        0.0229
     11 C         138.9355  138.9621  163.3113 C.3     1  UNL1        0.0194
     12 C         139.0023  138.1863  164.5934 C.3     1  UNL1        0.0229
     13 C         139.6754  138.7802  165.7951 C.3     1  UNL1        0.0922
     14 CA        141.0340  141.1448  169.4824 C.ar    1  UNL1        0.0966
     15 C         142.3008  141.9314  169.3203 C.ar    1  UNL1        0.0204
     16 C         142.8946  142.1242  167.9564 C.ar    1  UNL1        0.0044
     17 C         142.2216  141.5304  166.7546 C.ar    1  UNL1        0.0343
     18 C         140.9548  140.7438  166.9167 C.ar    1  UNL1        0.1317
     19 N         140.3609  140.5510  168.2806 N.ar    1  UNL1       -0.2295
     20 O         140.6278  142.0017  171.9012 O.co2   1  UNL1       -0.5430
     21 C         140.4402  140.9520  170.8463 C.2     1  UNL1        0.0905
     22 OXT       139.6587  139.7096  171.1553 O.co2   1  UNL1       -0.5430
     23 O         139.2890  140.6571  156.6592 O.3     1  UNL1       -0.4790
     24 C         139.4801  142.1353  156.4903 C.ar    1  UNL1        0.1392
     25 C         140.7239  142.7946  157.0081 C.ar    1  UNL1        0.0367
     26 C         140.9151  144.2728  156.8392 C.ar    1  UNL1        0.0021
     27 C         139.8625  145.0916  156.1525 C.ar    1  UNL1        0.0177
     28 C         138.6186  144.4322  155.6346 C.ar    1  UNL1        0.0590
     29 CL        137.5660  145.2509  154.9479 Cl      1  UNL1       -0.0824
     30 C         138.4274  142.9540  155.8035 C.ar    1  UNL1        0.0480
     31 C         140.0537  146.5697  155.9836 C.3     1  UNL1        0.1644
     32 O         139.3433  147.5267  156.8943 O.3     1  UNL1       -0.3772
     33 H         138.3871  147.4683  156.7423 H       1  UNL1        0.2109
@<TRIPOS>UNITY_ATOM_ATTR
20 1
charge -1
@<TRIPOS>BOND
     1    20    21   ar
     2    21    22   ar
     3    21    14    1
     4    14    15   ar
     5    15    16   ar
     6    16    17   ar
     7    17    18   ar
     8    18     8    1
     9     8     9    1
    10     9    10    1
    11    10    11    1
    12    11     7    1
    13     7     1    1
    14     1     2    1
    15     2     3    1
    16     3     4    1
    17     4    23    1
    18    23    24    1
    19    24    25   ar
    20    25    26   ar
    21    26    27   ar
    22    27    31    1
    23    31    32    1
    24    27    28   ar
    25    28    29    1
    26    28    30   ar
    27     4     5    1
    28     5     6    1
    29    11    12    1
    30    12    13    1
    31    18    19   ar
    32    19    14   ar
    33    13     8    1
    34     6     1    1
    35    30    24   ar
    36    32    33    1
@<TRIPOS>MOLECULE
*****
 33 36 0 0 0
SMALL
GASTEIGER

@<TRIPOS>ATOM
      1 N         141.3774  137.9275  161.6095 N.3     1  UNL1       -0.2724
      2 C         140.2447  138.6510  160.9436 C.3     1  UNL1        0.0758
      3 C         140.4661  139.3465  159.6331 C.3     1  UNL1        0.0609
      4 C         141.8203  139.3185  158.9886 C.3     1  UNL1        0.1687
      5 C         142.9530  138.5950  159.6545 C.3     1  UNL1        0.0609
      6 C         142.7316  137.8995  160.9649 C.3     1  UNL1        0.0758
      7 C         141.1560  137.2321  162.9199 C.3     1  UNL1        0.0722
      8 N         140.9367  139.6220  166.7265 N.pl3   1  UNL1       -0.2932
      9 C         142.2669  139.1730  166.1985 C.3     1  UNL1        0.0922
     10 C         142.3401  138.3763  164.9296 C.3     1  UNL1        0.0229
     11 C         141.0829  138.0287  164.1888 C.3     1  UNL1        0.0194
     12 C         139.7527  138.4777  164.7169 C.3     1  UNL1        0.0229
     13 C         139.6796  139.2743  165.9857 C.3     1  UNL1        0.0922
     14 CA        141.9613  142.0477  169.6957 C.ar    1  UNL1        0.0966
     15 C         140.7173  142.0119  170.5331 C.ar    1  UNL1        0.0204
     16 C         139.5465  141.1794  170.1017 C.ar    1  UNL1        0.0044
     17 C         139.6196  140.3828  168.8328 C.ar    1  UNL1        0.0343
     18 C         140.8635  140.4186  167.9954 C.ar    1  UNL1        0.1317
     19 N         142.0344  141.2511  168.4269 N.ar    1  UNL1       -0.2295
     20 O         142.9273  144.0352  171.0619 O.co2   1  UNL1       -0.5430
     21 C         143.1321  142.8802  170.1271 C.2     1  UNL1        0.0905
     22 OXT       144.5078  142.5576  169.6238 O.co2   1  UNL1       -0.5430
     23 O         142.0417  140.0139  157.6781 O.3     1  UNL1       -0.4790
     24 C         143.3487  140.6964  157.4027 C.ar    1  UNL1        0.1392
     25 C         143.8440  141.7691  158.3268 C.ar    1  UNL1        0.0367
     26 C         145.1511  142.4516  158.0513 C.ar    1  UNL1        0.0021
     27 C         145.9627  142.0615  156.8518 C.ar    1  UNL1        0.0177
     28 C         145.4674  140.9888  155.9276 C.ar    1  UNL1        0.0590
     29 CL        146.2791  140.5986  154.7281 Cl      1  UNL1       -0.0824
     30 C         144.1604  140.3062  156.2031 C.ar    1  UNL1        0.0480
     31 C         147.2697  142.7440  156.5763 C.3     1  UNL1        0.1644
     32 O         148.5402  141.9472  156.5459 O.3     1  UNL1       -0.3772
     33 H         148.7235  141.5970  157.4318 H       1  UNL1        0.2109
@<TRIPOS>UNITY_ATOM_ATTR
20 1
charge -1
@<TRIPOS>BOND
     1    20    21   ar
     2    21    22   ar
     3    21    14    1
     4    14    15   ar
     5    15    16   ar
     6    16    17   ar
     7    17    18   ar
     8    18     8    1
     9     8     9    1
    10     9    10    1
    11    10    11    1
    12    11     7    1
    13     7     1    1
    14     1     2    1
    15     2     3    1
    16     3     4    1
    17     4    23    1
    18    23    24    1
    19    24    25   ar
    20    25    26   ar
    21    26    27   ar
    22    27    31    1
    23    31    32    1
    24    27    28   ar
    25    28    29    1
    26    28    30   ar
    27     4     5    1
    28     5     6    1
    29    11    12    1
    30    12    13    1
    31    18    19   ar
    32    19    14   ar
    33    13     8    1
    34     6     1    1
    35    30    24   ar
    36    32    33    1
