@<TRIPOS>MOLECULE
*****
 15 16 0 0 0
SMALL
GASTEIGER

@<TRIPOS>ATOM
      1 O         139.2645  139.9628  170.7560 O.2     1  UNL1       -0.2501
      2 C         139.2870  140.1158  169.2640 C.2     1  UNL1        0.3332
      3 N         138.4966  139.3026  168.2823 N.am    1  UNL1       -0.2342
      4 C         139.4869  140.4289  168.2551 C.3     1  UNL1        0.1199
      5 C         139.9116  141.0227  166.9447 C.3     1  UNL1        0.1272
      6 C         139.3459  140.4903  165.6616 C.3     1  UNL1        0.0289
      7 C         138.3556  139.3641  165.6888 C.3     1  UNL1        0.0586
      8 C         137.9309  138.7703  166.9991 C.3     1  UNL1        0.2407
      9 F         136.9405  137.6440  167.0262 F       1  UNL1       -0.2147
     10 N         140.1040  141.1090  168.4918 N.am    1  UNL1       -0.1290
     11 O         141.0419  142.1234  169.0760 O.3     1  UNL1       -0.1369
     12 S         140.4971  143.3272  169.7859 S.3     1  UNL1        0.0201
     13 O         140.9958  142.7829  171.0916 O.2     1  UNL1       -0.3435
     14 O         139.9984  143.8716  168.4801 O.2     1  UNL1       -0.3435
     15 O         139.9523  144.5311  170.4958 O.co2   1  UNL1       -0.2667
@<TRIPOS>UNITY_ATOM_ATTR
15 1
charge -1
@<TRIPOS>BOND
     1     1     2    2
     2     2     3   am
     3     3     4    1
     4     4     5    1
     5     5     6    1
     6     6     7    1
     7     7     8    1
     8     8     9    1
     9     5    10    1
    10    10    11    1
    11    11    12    1
    12    12    13    2
    13    12    14    2
    14    12    15    1
    15    10     2   am
    16     8     3    1
@<TRIPOS>MOLECULE
*****
 15 16 0 0 0
SMALL
GASTEIGER

@<TRIPOS>ATOM
      1 O         139.1738  140.8922  170.6516 O.2     1  UNL1       -0.2501
      2 C         139.8757  140.4914  169.3880 C.2     1  UNL1        0.3332
      3 N         139.2210  139.9716  168.1426 N.am    1  UNL1       -0.2342
      4 C         140.6064  140.2791  168.6284 C.3     1  UNL1        0.1199
      5 C         141.7842  140.0558  167.7268 C.3     1  UNL1        0.1272
      6 C         141.5766  139.5250  166.3393 C.3     1  UNL1        0.0289
      7 C         140.1912  139.2175  165.8535 C.3     1  UNL1        0.0586
      8 C         139.0134  139.4408  166.7551 C.3     1  UNL1        0.2407
      9 F         137.6279  139.1332  166.2692 F       1  UNL1       -0.2147
     10 N         141.3556  140.5401  169.1479 N.am    1  UNL1       -0.1290
     11 O         142.3935  140.9981  170.1293 O.3     1  UNL1       -0.1369
     12 S         142.5468  142.4593  170.4316 S.3     1  UNL1        0.0201
     13 O         143.2708  142.6521  169.1322 O.2     1  UNL1       -0.3435
     14 O         141.8227  142.2664  171.7310 O.2     1  UNL1       -0.3435
     15 O         142.7001  143.9205  170.7339 O.co2   1  UNL1       -0.2667
@<TRIPOS>UNITY_ATOM_ATTR
15 1
charge -1
@<TRIPOS>BOND
     1     1     2    2
     2     2     3   am
     3     3     4    1
     4     4     5    1
     5     5     6    1
     6     6     7    1
     7     7     8    1
     8     8     9    1
     9     5    10    1
    10    10    11    1
    11    11    12    1
    12    12    13    2
    13    12    14    2
    14    12    15    1
    15    10     2   am
    16     8     3    1
@<TRIPOS>MOLECULE
*****
 15 16 0 0 0
SMALL
GASTEIGER

@<TRIPOS>ATOM
      1 O         142.3158  138.6005  170.1941 O.2     1  UNL1       -0.2501
      2 C         142.5355  139.6318  169.1273 C.2     1  UNL1        0.3332
      3 N         142.7704  139.3582  167.6714 N.am    1  UNL1       -0.2342
      4 C         142.6633  140.5477  168.5788 C.3     1  UNL1        0.1199
      5 C         142.8108  141.9323  168.0211 C.3     1  UNL1        0.1272
      6 C         143.0654  142.1274  166.5558 C.3     1  UNL1        0.0289
      7 C         143.1725  140.9379  165.6483 C.3     1  UNL1        0.0586
      8 C         143.0250  139.5533  166.2061 C.3     1  UNL1        0.2407
      9 F         143.1321  138.3638  165.2985 F       1  UNL1       -0.2147
     10 N         142.5588  141.1180  169.3292 N.am    1  UNL1       -0.1290
     11 O         142.3665  141.8338  170.6334 O.3     1  UNL1       -0.1369
     12 S         141.0085  142.3425  171.0166 S.3     1  UNL1        0.0201
     13 O         140.7183  141.0450  171.7109 O.2     1  UNL1       -0.3435
     14 O         141.2987  143.6401  170.3223 O.2     1  UNL1       -0.3435
     15 O         139.6505  142.8513  171.3998 O.co2   1  UNL1       -0.2667
@<TRIPOS>UNITY_ATOM_ATTR
15 1
charge -1
@<TRIPOS>BOND
     1     1     2    2
     2     2     3   am
     3     3     4    1
     4     4     5    1
     5     5     6    1
     6     6     7    1
     7     7     8    1
     8     8     9    1
     9     5    10    1
    10    10    11    1
    11    11    12    1
    12    12    13    2
    13    12    14    2
    14    12    15    1
    15    10     2   am
    16     8     3    1
@<TRIPOS>MOLECULE
*****
 15 16 0 0 0
SMALL
GASTEIGER

@<TRIPOS>ATOM
      1 O         139.0669  139.6095  168.4934 O.2     1  UNL1       -0.2501
      2 C         140.2456  140.2902  167.8631 C.2     1  UNL1        0.3332
      3 N         141.1632  139.6942  166.8370 N.am    1  UNL1       -0.2342
      4 C         141.0102  140.9899  167.5771 C.3     1  UNL1        0.1199
      5 C         141.9741  142.1125  167.3310 C.3     1  UNL1        0.1272
      6 C         143.0909  141.9395  166.3448 C.3     1  UNL1        0.0289
      7 C         143.2439  140.6439  165.6047 C.3     1  UNL1        0.0586
      8 C         142.2800  139.5212  165.8508 C.3     1  UNL1        0.2407
      9 F         142.4330  138.2255  165.1107 F       1  UNL1       -0.2147
     10 N         140.7138  141.6865  168.1484 N.am    1  UNL1       -0.1290
     11 O         140.0854  142.6471  169.1139 O.3     1  UNL1       -0.1369
     12 S         140.2805  142.4626  170.5896 S.3     1  UNL1        0.0201
     13 O         141.6183  143.1346  170.4969 O.2     1  UNL1       -0.3435
     14 O         138.9427  141.7905  170.6824 O.2     1  UNL1       -0.3435
     15 O         140.4756  142.2780  172.0654 O.co2   1  UNL1       -0.2667
@<TRIPOS>UNITY_ATOM_ATTR
15 1
charge -1
@<TRIPOS>BOND
     1     1     2    2
     2     2     3   am
     3     3     4    1
     4     4     5    1
     5     5     6    1
     6     6     7    1
     7     7     8    1
     8     8     9    1
     9     5    10    1
    10    10    11    1
    11    11    12    1
    12    12    13    2
    13    12    14    2
    14    12    15    1
    15    10     2   am
    16     8     3    1
@<TRIPOS>MOLECULE
*****
 15 16 0 0 0
SMALL
GASTEIGER

@<TRIPOS>ATOM
      1 O         143.5281  142.6112  168.5377 O.2     1  UNL1       -0.2501
      2 C         142.4977  141.7336  167.8911 C.2     1  UNL1        0.3332
      3 N         142.7684  140.6312  166.9106 N.am    1  UNL1       -0.2342
      4 C         141.5834  141.2605  167.5811 C.3     1  UNL1        0.1199
      5 C         140.2015  140.7537  167.2923 C.3     1  UNL1        0.1272
      6 C         140.0046  139.6176  166.3329 C.3     1  UNL1        0.0289
      7 C         141.1896  138.9882  165.6624 C.3     1  UNL1        0.0586
      8 C         142.5715  139.4951  165.9513 C.3     1  UNL1        0.2407
      9 F         143.7566  138.8657  165.2807 F       1  UNL1       -0.2147
     10 N         141.0156  141.8043  168.1115 N.am    1  UNL1       -0.1290
     11 O         140.3038  142.7651  169.0171 O.3     1  UNL1       -0.1369
     12 S         140.3233  142.5511  170.5017 S.3     1  UNL1        0.0201
     13 O         141.3959  143.5909  170.6374 O.2     1  UNL1       -0.3435
     14 O         139.2507  141.5113  170.3659 O.2     1  UNL1       -0.3435
     15 O         140.3428  142.3371  171.9862 O.co2   1  UNL1       -0.2667
@<TRIPOS>UNITY_ATOM_ATTR
15 1
charge -1
@<TRIPOS>BOND
     1     1     2    2
     2     2     3   am
     3     3     4    1
     4     4     5    1
     5     5     6    1
     6     6     7    1
     7     7     8    1
     8     8     9    1
     9     5    10    1
    10    10    11    1
    11    11    12    1
    12    12    13    2
    13    12    14    2
    14    12    15    1
    15    10     2   am
    16     8     3    1
@<TRIPOS>MOLECULE
*****
 15 16 0 0 0
SMALL
GASTEIGER

@<TRIPOS>ATOM
      1 O         142.4902  141.2760  167.9326 O.2     1  UNL1       -0.2501
      2 C         141.1825  140.6780  167.5056 C.2     1  UNL1        0.3332
      3 N         140.6203  140.6888  166.1150 N.am    1  UNL1       -0.2342
      4 C         140.2298  140.1808  167.4713 C.3     1  UNL1        0.1199
      5 C         138.9314  139.4523  167.6541 C.3     1  UNL1        0.1272
      6 C         138.0235  139.2318  166.4807 C.3     1  UNL1        0.0289
      7 C         138.4139  139.7397  165.1245 C.3     1  UNL1        0.0586
      8 C         139.7123  140.4683  164.9416 C.3     1  UNL1        0.2407
      9 F         140.1027  140.9762  163.5853 F       1  UNL1       -0.2147
     10 N         140.2074  139.9640  168.3942 N.am    1  UNL1       -0.1290
     11 O         140.3688  139.7228  169.8659 O.3     1  UNL1       -0.1369
     12 S         140.4512  140.8842  170.8117 S.3     1  UNL1        0.0201
     13 O         141.9004  140.5834  171.0549 O.2     1  UNL1       -0.3435
     14 O         139.0019  141.1850  170.5684 O.2     1  UNL1       -0.3435
     15 O         140.5335  142.0455  171.7574 O.co2   1  UNL1       -0.2667
@<TRIPOS>UNITY_ATOM_ATTR
15 1
charge -1
@<TRIPOS>BOND
     1     1     2    2
     2     2     3   am
     3     3     4    1
     4     4     5    1
     5     5     6    1
     6     6     7    1
     7     7     8    1
     8     8     9    1
     9     5    10    1
    10    10    11    1
    11    11    12    1
    12    12    13    2
    13    12    14    2
    14    12    15    1
    15    10     2   am
    16     8     3    1
@<TRIPOS>MOLECULE
*****
 15 16 0 0 0
SMALL
GASTEIGER

@<TRIPOS>ATOM
      1 O         142.8264  139.8985  170.2420 O.2     1  UNL1       -0.2501
      2 C         142.4313  139.6706  168.8130 C.2     1  UNL1        0.3332
      3 N         143.2192  138.9048  167.7918 N.am    1  UNL1       -0.2342
      4 C         141.9239  139.6577  167.8652 C.3     1  UNL1        0.1199
      5 C         141.0501  139.7671  166.6509 C.3     1  UNL1        0.1272
      6 C         141.4716  139.1237  165.3632 C.3     1  UNL1        0.0289
      7 C         142.7669  138.3709  165.2897 C.3     1  UNL1        0.0586
      8 C         143.6407  138.2615  166.5040 C.3     1  UNL1        0.2407
      9 F         144.9360  137.5086  166.4305 F       1  UNL1       -0.2147
     10 N         141.1790  140.1684  168.1543 N.am    1  UNL1       -0.1290
     11 O         140.1018  140.9816  168.8090 O.3     1  UNL1       -0.1369
     12 S         139.1668  140.3374  169.7891 S.3     1  UNL1        0.0201
     13 O         139.7601  141.1589  170.8950 O.2     1  UNL1       -0.3435
     14 O         138.5735  139.5158  168.6832 O.2     1  UNL1       -0.3435
     15 O         138.2318  139.6932  170.7693 O.co2   1  UNL1       -0.2667
@<TRIPOS>UNITY_ATOM_ATTR
15 1
charge -1
@<TRIPOS>BOND
     1     1     2    2
     2     2     3   am
     3     3     4    1
     4     4     5    1
     5     5     6    1
     6     6     7    1
     7     7     8    1
     8     8     9    1
     9     5    10    1
    10    10    11    1
    11    11    12    1
    12    12    13    2
    13    12    14    2
    14    12    15    1
    15    10     2   am
    16     8     3    1
@<TRIPOS>MOLECULE
*****
 15 16 0 0 0
SMALL
GASTEIGER

@<TRIPOS>ATOM
      1 O         139.6195  146.3527  161.8251 O.2     1  UNL1       -0.2501
      2 C         140.3270  145.4083  162.7512 C.2     1  UNL1        0.3332
      3 N         141.8071  145.3479  162.9871 N.am    1  UNL1       -0.2342
      4 C         140.5727  144.6410  163.4631 C.3     1  UNL1        0.1199
      5 C         140.6839  143.5296  164.4643 C.3     1  UNL1        0.1272
      6 C         142.0294  143.1250  164.9894 C.3     1  UNL1        0.0289
      7 C         143.2638  143.8319  164.5133 C.3     1  UNL1        0.0586
      8 C         143.1526  144.9433  163.5122 C.3     1  UNL1        0.2407
      9 F         144.3870  145.6502  163.0362 F       1  UNL1       -0.2147
     10 N         139.6785  144.3584  163.6041 N.am    1  UNL1       -0.1290
     11 O         138.2087  144.0687  163.6806 O.3     1  UNL1       -0.1369
     12 S         137.6604  142.8085  163.0794 S.3     1  UNL1        0.0201
     13 O         137.5236  142.2143  164.4498 O.2     1  UNL1       -0.3435
     14 O         137.7973  143.4028  161.7089 O.2     1  UNL1       -0.3435
     15 O         137.1122  141.5484  162.4782 O.co2   1  UNL1       -0.2667
@<TRIPOS>UNITY_ATOM_ATTR
15 1
charge -1
@<TRIPOS>BOND
     1     1     2    2
     2     2     3   am
     3     3     4    1
     4     4     5    1
     5     5     6    1
     6     6     7    1
     7     7     8    1
     8     8     9    1
     9     5    10    1
    10    10    11    1
    11    11    12    1
    12    12    13    2
    13    12    14    2
    14    12    15    1
    15    10     2   am
    16     8     3    1
@<TRIPOS>MOLECULE
*****
 15 16 0 0 0
SMALL
GASTEIGER

@<TRIPOS>ATOM
      1 O         136.9038  141.6812  162.7782 O.2     1  UNL1       -0.2501
      2 C         137.8453  141.4738  163.9273 C.2     1  UNL1        0.3332
      3 N         138.2871  140.1501  164.4772 N.am    1  UNL1       -0.2342
      4 C         138.5228  141.6058  164.7516 C.3     1  UNL1        0.1199
      5 C         139.4390  142.0206  165.8645 C.3     1  UNL1        0.1272
      6 C         140.1197  140.9796  166.7030 C.3     1  UNL1        0.0289
      7 C         139.8840  139.5239  166.4286 C.3     1  UNL1        0.0586
      8 C         138.9678  139.1091  165.3157 C.3     1  UNL1        0.2407
      9 F         138.7322  137.6533  165.0413 F       1  UNL1       -0.2147
     10 N         138.5104  142.5538  164.7283 N.am    1  UNL1       -0.1290
     11 O         138.3506  144.0308  164.5207 O.3     1  UNL1       -0.1369
     12 S         139.0770  144.7135  163.3999 S.3     1  UNL1        0.0201
     13 O         140.3394  144.7000  164.2099 O.2     1  UNL1       -0.3435
     14 O         137.8146  144.7271  162.5900 O.2     1  UNL1       -0.3435
     15 O         139.8034  145.3963  162.2791 O.co2   1  UNL1       -0.2667
@<TRIPOS>UNITY_ATOM_ATTR
15 1
charge -1
@<TRIPOS>BOND
     1     1     2    2
     2     2     3   am
     3     3     4    1
     4     4     5    1
     5     5     6    1
     6     6     7    1
     7     7     8    1
     8     8     9    1
     9     5    10    1
    10    10    11    1
    11    11    12    1
    12    12    13    2
    13    12    14    2
    14    12    15    1
    15    10     2   am
    16     8     3    1
