@<TRIPOS>MOLECULE
*****
 32 35 0 0 0
SMALL
GASTEIGER

@<TRIPOS>ATOM
      1 C         143.1767  143.2967  161.5853 C.3     1  UNL1        0.0722
      2 N         143.1197  143.0354  163.0613 N.3     1  UNL1       -0.2727
      3 C         142.0833  142.1053  163.6188 C.3     1  UNL1        0.0725
      4 C         142.0263  141.8440  165.0948 C.3     1  UNL1        0.0234
      5 C         143.0056  142.5129  166.0133 C.3     1  UNL1        0.0464
      6 C         144.0419  143.4429  165.4557 C.3     1  UNL1        0.0234
      7 C         144.0990  143.7042  163.9797 C.3     1  UNL1        0.0725
      8 C         142.9486  142.2516  167.4892 C.ar    1  UNL1        0.1003
      9 N         143.9645  142.6898  168.5021 N.ar    1  UNL1       -0.0814
     10 O         143.5093  142.2153  169.8503 O.2     1  UNL1       -0.3536
     11 C         142.2122  141.4838  169.6707 C.ar    1  UNL1        0.1787
     12 C         141.3018  140.8001  170.6473 C.ar    1  UNL1        0.0698
     13 C         140.0449  140.1390  170.1647 C.ar    1  UNL1        0.1433
     14 F         139.1345  139.4553  171.1413 F       1  UNL1       -0.2041
     15 C         139.6983  140.1614  168.7055 C.ar    1  UNL1        0.0299
     16 C         140.6087  140.8450  167.7288 C.ar    1  UNL1        0.0067
     17 C         141.8656  141.5062  168.2114 C.ar    1  UNL1        0.0540
     18 C         142.1726  144.2093  160.9458 C.3     1  UNL1        0.0212
     19 C         141.3416  145.1236  161.7964 C.3     1  UNL1        0.0488
     20 C         140.0299  145.6393  161.2831 C.3     1  UNL1        0.2054
     21 O         138.7879  145.4845  162.1098 O.3     1  UNL1       -0.4755
     22 C         138.0655  141.6751  164.3938 C.ar    1  UNL1        0.0505
     23 C         138.6550  142.8663  165.0893 C.ar    1  UNL1        0.0178
     24 C         138.8958  144.1361  164.3279 C.ar    1  UNL1        0.0382
     25 C         138.5471  144.2147  162.8712 C.ar    1  UNL1        0.1386
     26 C         137.9576  143.0235  162.1757 C.ar    1  UNL1        0.0382
     27 C         137.7168  141.7537  162.9371 C.ar    1  UNL1        0.0178
     28 C         138.4740  137.9485  165.6960 C.3     1  UNL1        0.0949
     29 C         138.7148  139.2183  164.9346 C.2     1  UNL1        0.2266
     30 O         139.8457  139.3011  163.9527 O.2     1  UNL1       -0.2748
     31 N         137.8248  140.4053  165.1552 N.am    1  UNL1       -0.2839
     32 H         137.0825  140.3510  165.7996 H       1  UNL1        0.1549
@<TRIPOS>BOND
     1    28    29    1
     2    29    30    2
     3    29    31   am
     4    31    22    1
     5    22    23   ar
     6    23    24   ar
     7    24    25   ar
     8    25    21    1
     9    21    20    1
    10    20    19    1
    11    19    18    1
    12    18     1    1
    13     1     2    1
    14     2     3    1
    15     3     4    1
    16     4     5    1
    17     5     8    1
    18     8     9   ar
    19     9    10   ar
    20    10    11   ar
    21    11    12   ar
    22    12    13   ar
    23    13    14    1
    24    13    15   ar
    25    15    16   ar
    26    16    17   ar
    27     5     6    1
    28     6     7    1
    29    25    26   ar
    30    26    27   ar
    31    27    22   ar
    32     7     2    1
    33    17     8   ar
    34    17    11   ar
    35    31    32    1
@<TRIPOS>MOLECULE
*****
 32 35 0 0 0
SMALL
GASTEIGER

@<TRIPOS>ATOM
      1 C         137.7390  138.7019  161.2478 C.3     1  UNL1        0.0722
      2 N         138.0779  138.9295  162.6911 N.3     1  UNL1       -0.2727
      3 C         138.5925  137.7964  163.5285 C.3     1  UNL1        0.0725
      4 C         138.9313  138.0240  164.9719 C.3     1  UNL1        0.0234
      5 C         138.7555  139.3849  165.5780 C.3     1  UNL1        0.0464
      6 C         138.2409  140.5179  164.7406 C.3     1  UNL1        0.0234
      7 C         137.9021  140.2903  163.2972 C.3     1  UNL1        0.0725
      8 C         139.0944  139.6125  167.0213 C.ar    1  UNL1        0.1003
      9 N         138.2656  139.1915  168.1986 N.ar    1  UNL1       -0.0814
     10 O         138.9805  139.6199  169.4457 O.2     1  UNL1       -0.3536
     11 C         140.2511  140.3058  169.0392 C.ar    1  UNL1        0.1787
     12 C         141.3531  140.9339  169.8399 C.ar    1  UNL1        0.0698
     13 C         142.5255  141.5573  169.1422 C.ar    1  UNL1        0.1433
     14 F         143.6276  142.1855  169.9428 F       1  UNL1       -0.2041
     15 C         142.5958  141.5528  167.6438 C.ar    1  UNL1        0.0299
     16 C         141.4938  140.9247  166.8432 C.ar    1  UNL1        0.0067
     17 C         140.3215  140.3012  167.5409 C.ar    1  UNL1        0.0540
     18 C         137.3427  139.8586  160.3789 C.3     1  UNL1        0.0212
     19 C         138.3936  140.6485  159.6565 C.3     1  UNL1        0.0488
     20 C         139.5098  139.9398  158.9481 C.3     1  UNL1        0.2054
     21 O         140.9212  140.0904  159.4332 O.3     1  UNL1       -0.4755
     22 C         142.0553  138.6435  163.5405 C.ar    1  UNL1        0.0505
     23 C         142.0407  137.6864  162.3856 C.ar    1  UNL1        0.0178
     24 C         141.6627  138.1687  161.0165 C.ar    1  UNL1        0.0382
     25 C         141.2992  139.6081  160.8023 C.ar    1  UNL1        0.1386
     26 C         141.3138  140.5652  161.9572 C.ar    1  UNL1        0.0382
     27 C         141.6918  140.0829  163.3263 C.ar    1  UNL1        0.0178
     28 C         144.1788  137.9662  166.8241 C.3     1  UNL1        0.0949
     29 C         143.8008  138.4485  165.4550 C.2     1  UNL1        0.2266
     30 O         144.7902  139.2182  164.6312 O.2     1  UNL1       -0.2748
     31 N         142.4333  138.1612  164.9096 N.am    1  UNL1       -0.2839
     32 H         141.7839  137.6560  165.4502 H       1  UNL1        0.1549
@<TRIPOS>BOND
     1    28    29    1
     2    29    30    2
     3    29    31   am
     4    31    22    1
     5    22    23   ar
     6    23    24   ar
     7    24    25   ar
     8    25    21    1
     9    21    20    1
    10    20    19    1
    11    19    18    1
    12    18     1    1
    13     1     2    1
    14     2     3    1
    15     3     4    1
    16     4     5    1
    17     5     8    1
    18     8     9   ar
    19     9    10   ar
    20    10    11   ar
    21    11    12   ar
    22    12    13   ar
    23    13    14    1
    24    13    15   ar
    25    15    16   ar
    26    16    17   ar
    27     5     6    1
    28     6     7    1
    29    25    26   ar
    30    26    27   ar
    31    27    22   ar
    32     7     2    1
    33    17     8   ar
    34    17    11   ar
    35    31    32    1
@<TRIPOS>MOLECULE
*****
 32 35 0 0 0
SMALL
GASTEIGER

@<TRIPOS>ATOM
      1 C         137.8756  138.5756  161.5003 C.3     1  UNL1        0.0722
      2 N         138.2274  138.8517  162.9321 N.3     1  UNL1       -0.2727
      3 C         138.8138  137.7647  163.7834 C.3     1  UNL1        0.0725
      4 C         139.1656  138.0408  165.2152 C.3     1  UNL1        0.0234
      5 C         138.9311  139.4040  165.7957 C.3     1  UNL1        0.0464
      6 C         138.3447  140.4908  164.9444 C.3     1  UNL1        0.0234
      7 C         137.9929  140.2147  163.5127 C.3     1  UNL1        0.0725
      8 C         139.2829  139.6801  167.2275 C.ar    1  UNL1        0.1003
      9 N         138.4405  139.3456  168.4227 N.ar    1  UNL1       -0.0814
     10 O         139.1759  139.7979  169.6493 O.2     1  UNL1       -0.3536
     11 C         140.4728  140.4120  169.2122 C.ar    1  UNL1        0.1787
     12 C         141.6020  141.0280  169.9837 C.ar    1  UNL1        0.0698
     13 C         142.7974  141.5712  169.2584 C.ar    1  UNL1        0.1433
     14 F         143.9267  142.1873  170.0300 F       1  UNL1       -0.2041
     15 C         142.8635  141.4983  167.7617 C.ar    1  UNL1        0.0299
     16 C         141.7343  140.8823  166.9901 C.ar    1  UNL1        0.0067
     17 C         140.5389  140.3391  167.7154 C.ar    1  UNL1        0.0540
     18 C         137.7621  139.7086  160.5240 C.3     1  UNL1        0.0212
     19 C         138.9089  140.0307  159.6123 C.3     1  UNL1        0.0488
     20 C         139.8505  138.9462  159.1797 C.3     1  UNL1        0.2054
     21 O         141.2470  138.9036  159.7255 O.3     1  UNL1       -0.4755
     22 C         142.4812  141.7624  162.9742 C.ar    1  UNL1        0.0505
     23 C         142.5658  142.1798  161.5359 C.ar    1  UNL1        0.0178
     24 C         142.1544  141.2268  160.4530 C.ar    1  UNL1        0.0382
     25 C         141.6584  139.8566  160.8084 C.ar    1  UNL1        0.1386
     26 C         141.5738  139.4392  162.2467 C.ar    1  UNL1        0.0382
     27 C         141.9852  140.3922  163.3296 C.ar    1  UNL1        0.0178
     28 C         144.7467  143.7759  165.5361 C.3     1  UNL1        0.0949
     29 C         144.3353  142.8229  164.4532 C.2     1  UNL1        0.2266
     30 O         145.3666  141.9775  163.7665 O.2     1  UNL1       -0.2748
     31 N         142.8926  142.7154  164.0571 N.am    1  UNL1       -0.2839
     32 H         142.2157  143.2702  164.5078 H       1  UNL1        0.1549
@<TRIPOS>BOND
     1    28    29    1
     2    29    30    2
     3    29    31   am
     4    31    22    1
     5    22    23   ar
     6    23    24   ar
     7    24    25   ar
     8    25    21    1
     9    21    20    1
    10    20    19    1
    11    19    18    1
    12    18     1    1
    13     1     2    1
    14     2     3    1
    15     3     4    1
    16     4     5    1
    17     5     8    1
    18     8     9   ar
    19     9    10   ar
    20    10    11   ar
    21    11    12   ar
    22    12    13   ar
    23    13    14    1
    24    13    15   ar
    25    15    16   ar
    26    16    17   ar
    27     5     6    1
    28     6     7    1
    29    25    26   ar
    30    26    27   ar
    31    27    22   ar
    32     7     2    1
    33    17     8   ar
    34    17    11   ar
    35    31    32    1
@<TRIPOS>MOLECULE
*****
 32 35 0 0 0
SMALL
GASTEIGER

@<TRIPOS>ATOM
      1 C         143.3975  137.9955  160.8403 C.3     1  UNL1        0.0722
      2 N         143.2368  138.3413  162.2910 N.3     1  UNL1       -0.2727
      3 C         142.1109  137.7462  163.0836 C.3     1  UNL1        0.0725
      4 C         141.9501  138.0920  164.5343 C.3     1  UNL1        0.0234
      5 C         142.9154  139.0329  165.1925 C.3     1  UNL1        0.0464
      6 C         144.0412  139.6279  164.3999 C.3     1  UNL1        0.0234
      7 C         144.2020  139.2821  162.9492 C.3     1  UNL1        0.0725
      8 C         142.7546  139.3787  166.6432 C.ar    1  UNL1        0.1003
      9 N         143.3247  138.6133  167.8004 N.ar    1  UNL1       -0.0814
     10 O         142.9180  139.3121  169.0638 O.2     1  UNL1       -0.3536
     11 C         142.0965  140.5094  168.6874 C.ar    1  UNL1        0.1787
     12 C         141.4274  141.5675  169.5136 C.ar    1  UNL1        0.0698
     13 C         140.6574  142.6667  168.8438 C.ar    1  UNL1        0.1433
     14 F         139.9882  143.7249  169.6701 F       1  UNL1       -0.2041
     15 C         140.5564  142.7079  167.3478 C.ar    1  UNL1        0.0299
     16 C         141.2255  141.6498  166.5216 C.ar    1  UNL1        0.0067
     17 C         141.9956  140.5506  167.1914 C.ar    1  UNL1        0.0540
     18 C         143.5446  139.0862  159.8211 C.3     1  UNL1        0.0212
     19 C         142.6212  139.1387  158.6402 C.3     1  UNL1        0.0488
     20 C         141.4189  140.0352  158.6675 C.3     1  UNL1        0.2054
     21 O         140.0902  139.4949  159.1063 O.3     1  UNL1       -0.4755
     22 C         138.8250  139.8542  163.4098 C.ar    1  UNL1        0.0505
     23 C         138.1356  138.8769  162.5044 C.ar    1  UNL1        0.0178
     24 C         138.5574  138.7571  161.0699 C.ar    1  UNL1        0.0382
     25 C         139.6685  139.6147  160.5408 C.ar    1  UNL1        0.1386
     26 C         140.3579  140.5920  161.4461 C.ar    1  UNL1        0.0382
     27 C         139.9361  140.7117  162.8806 C.ar    1  UNL1        0.0178
     28 C         137.9484  138.8766  167.1549 C.3     1  UNL1        0.0949
     29 C         138.3701  138.7569  165.7204 C.2     1  UNL1        0.2266
     30 O         138.7587  137.4200  165.1620 O.2     1  UNL1       -0.2748
     31 N         138.4033  139.9739  164.8443 N.am    1  UNL1       -0.2839
     32 H         138.1483  140.8513  165.2108 H       1  UNL1        0.1549
@<TRIPOS>BOND
     1    28    29    1
     2    29    30    2
     3    29    31   am
     4    31    22    1
     5    22    23   ar
     6    23    24   ar
     7    24    25   ar
     8    25    21    1
     9    21    20    1
    10    20    19    1
    11    19    18    1
    12    18     1    1
    13     1     2    1
    14     2     3    1
    15     3     4    1
    16     4     5    1
    17     5     8    1
    18     8     9   ar
    19     9    10   ar
    20    10    11   ar
    21    11    12   ar
    22    12    13   ar
    23    13    14    1
    24    13    15   ar
    25    15    16   ar
    26    16    17   ar
    27     5     6    1
    28     6     7    1
    29    25    26   ar
    30    26    27   ar
    31    27    22   ar
    32     7     2    1
    33    17     8   ar
    34    17    11   ar
    35    31    32    1
@<TRIPOS>MOLECULE
*****
 32 35 0 0 0
SMALL
GASTEIGER

@<TRIPOS>ATOM
      1 C         139.6521  138.1309  162.4023 C.3     1  UNL1        0.0722
      2 N         139.7028  138.6304  163.8158 N.3     1  UNL1       -0.2727
      3 C         138.4430  139.0684  164.5021 C.3     1  UNL1        0.0725
      4 C         138.4936  139.5680  165.9155 C.3     1  UNL1        0.0234
      5 C         139.8042  139.6294  166.6428 C.3     1  UNL1        0.0464
      6 C         141.0639  139.1914  165.9565 C.3     1  UNL1        0.0234
      7 C         141.0132  138.6919  164.5430 C.3     1  UNL1        0.0725
      8 C         139.8548  140.1290  168.0563 C.ar    1  UNL1        0.1003
      9 N         138.8711  139.8055  169.1415 N.ar    1  UNL1       -0.0814
     10 O         139.3065  140.5163  170.3886 O.2     1  UNL1       -0.3536
     11 C         140.5593  141.2790  170.0741 C.ar    1  UNL1        0.1787
     12 C         141.4352  142.1605  170.9141 C.ar    1  UNL1        0.0698
     13 C         142.6500  142.8027  170.3127 C.ar    1  UNL1        0.1433
     14 F         143.5260  143.6842  171.1527 F       1  UNL1       -0.2041
     15 C         142.9889  142.5633  168.8712 C.ar    1  UNL1        0.0299
     16 C         142.1130  141.6817  168.0312 C.ar    1  UNL1        0.0067
     17 C         140.8982  141.0396  168.6327 C.ar    1  UNL1        0.0540
     18 C         138.3354  138.0214  161.6923 C.3     1  UNL1        0.0212
     19 C         137.5796  139.2619  161.3181 C.3     1  UNL1        0.0488
     20 C         138.0551  140.1150  160.1797 C.3     1  UNL1        0.2054
     21 O         138.6054  141.4845  160.4475 O.3     1  UNL1       -0.4755
     22 C         141.7900  142.0577  163.5748 C.ar    1  UNL1        0.0505
     23 C         142.1499  141.4932  162.2325 C.ar    1  UNL1        0.0178
     24 C         141.0884  141.3021  161.1901 C.ar    1  UNL1        0.0382
     25 C         139.6669  141.6756  161.4899 C.ar    1  UNL1        0.1386
     26 C         139.3070  142.2401  162.8323 C.ar    1  UNL1        0.0382
     27 C         140.3685  142.4311  163.8747 C.ar    1  UNL1        0.0178
     28 C         144.7342  143.6949  165.6726 C.3     1  UNL1        0.0949
     29 C         143.6727  143.5039  164.6302 C.2     1  UNL1        0.2266
     30 O         143.4324  144.5680  163.6006 O.2     1  UNL1       -0.2748
     31 N         142.8515  142.2488  164.6172 N.am    1  UNL1       -0.2839
     32 H         143.0092  141.5503  165.2929 H       1  UNL1        0.1549
@<TRIPOS>BOND
     1    28    29    1
     2    29    30    2
     3    29    31   am
     4    31    22    1
     5    22    23   ar
     6    23    24   ar
     7    24    25   ar
     8    25    21    1
     9    21    20    1
    10    20    19    1
    11    19    18    1
    12    18     1    1
    13     1     2    1
    14     2     3    1
    15     3     4    1
    16     4     5    1
    17     5     8    1
    18     8     9   ar
    19     9    10   ar
    20    10    11   ar
    21    11    12   ar
    22    12    13   ar
    23    13    14    1
    24    13    15   ar
    25    15    16   ar
    26    16    17   ar
    27     5     6    1
    28     6     7    1
    29    25    26   ar
    30    26    27   ar
    31    27    22   ar
    32     7     2    1
    33    17     8   ar
    34    17    11   ar
    35    31    32    1
@<TRIPOS>MOLECULE
*****
 32 35 0 0 0
SMALL
GASTEIGER

@<TRIPOS>ATOM
      1 C         140.7984  145.6345  162.6015 C.3     1  UNL1        0.0722
      2 N         140.6770  144.5824  163.6637 N.3     1  UNL1       -0.2727
      3 C         141.7011  143.4905  163.7583 C.3     1  UNL1        0.0725
      4 C         141.5797  142.4384  164.8206 C.3     1  UNL1        0.0234
      5 C         140.4342  142.4783  165.7883 C.3     1  UNL1        0.0464
      6 C         139.4102  143.5702  165.6937 C.3     1  UNL1        0.0234
      7 C         139.5316  144.6223  164.6314 C.3     1  UNL1        0.0725
      8 C         140.3128  141.4262  166.8506 C.ar    1  UNL1        0.1003
      9 N         139.1993  140.4298  166.9815 N.ar    1  UNL1       -0.0814
     10 O         139.4820  139.5736  168.1803 O.2     1  UNL1       -0.3536
     11 C         140.7703  140.0409  168.7902 C.ar    1  UNL1        0.1787
     12 C         141.5421  139.5717  169.9877 C.ar    1  UNL1        0.0698
     13 C         142.8274  140.2475  170.3635 C.ar    1  UNL1        0.1433
     14 F         143.5993  139.7783  171.5610 F       1  UNL1       -0.2041
     15 C         143.3409  141.3924  169.5416 C.ar    1  UNL1        0.0299
     16 C         142.5691  141.8616  168.3441 C.ar    1  UNL1        0.0067
     17 C         141.2838  141.1858  167.9684 C.ar    1  UNL1        0.0540
     18 C         141.2104  145.2522  161.2108 C.3     1  UNL1        0.0212
     19 C         140.2953  145.5287  160.0548 C.3     1  UNL1        0.0488
     20 C         140.0417  144.4651  159.0280 C.3     1  UNL1        0.2054
     21 O         138.9666  143.4441  159.2554 O.3     1  UNL1       -0.4755
     22 C         139.2211  140.6551  162.7778 C.ar    1  UNL1        0.0505
     23 C         138.1414  141.6948  162.7208 C.ar    1  UNL1        0.0178
     24 C         138.0565  142.6244  161.5467 C.ar    1  UNL1        0.0382
     25 C         139.0515  142.5144  160.4295 C.ar    1  UNL1        0.1386
     26 C         140.1312  141.4748  160.4865 C.ar    1  UNL1        0.0382
     27 C         140.2160  140.5451  161.6606 C.ar    1  UNL1        0.0178
     28 C         138.9197  137.3778  164.9954 C.3     1  UNL1        0.0949
     29 C         138.8349  138.3074  163.8213 C.2     1  UNL1        0.2266
     30 O         138.2789  137.8190  162.5166 O.2     1  UNL1       -0.2748
     31 N         139.3060  139.7255  163.9519 N.am    1  UNL1       -0.2839
     32 H         139.6709  140.0461  164.8082 H       1  UNL1        0.1549
@<TRIPOS>BOND
     1    28    29    1
     2    29    30    2
     3    29    31   am
     4    31    22    1
     5    22    23   ar
     6    23    24   ar
     7    24    25   ar
     8    25    21    1
     9    21    20    1
    10    20    19    1
    11    19    18    1
    12    18     1    1
    13     1     2    1
    14     2     3    1
    15     3     4    1
    16     4     5    1
    17     5     8    1
    18     8     9   ar
    19     9    10   ar
    20    10    11   ar
    21    11    12   ar
    22    12    13   ar
    23    13    14    1
    24    13    15   ar
    25    15    16   ar
    26    16    17   ar
    27     5     6    1
    28     6     7    1
    29    25    26   ar
    30    26    27   ar
    31    27    22   ar
    32     7     2    1
    33    17     8   ar
    34    17    11   ar
    35    31    32    1
@<TRIPOS>MOLECULE
*****
 32 35 0 0 0
SMALL
GASTEIGER

@<TRIPOS>ATOM
      1 C         143.1223  137.6505  160.8757 C.3     1  UNL1        0.0722
      2 N         143.0180  138.0806  162.3089 N.3     1  UNL1       -0.2727
      3 C         141.8406  137.6562  163.1356 C.3     1  UNL1        0.0725
      4 C         141.7363  138.0863  164.5688 C.3     1  UNL1        0.0234
      5 C         142.8096  138.9410  165.1754 C.3     1  UNL1        0.0464
      6 C         143.9870  139.3654  164.3486 C.3     1  UNL1        0.0234
      7 C         144.0912  138.9352  162.9154 C.3     1  UNL1        0.0725
      8 C         142.7053  139.3711  166.6086 C.ar    1  UNL1        0.1003
      9 N         143.2946  138.6568  167.7886 N.ar    1  UNL1       -0.0814
     10 O         142.9469  139.4354  169.0227 O.2     1  UNL1       -0.3536
     11 C         142.1428  140.6309  168.6054 C.ar    1  UNL1        0.1787
     12 C         141.5272  141.7505  169.3912 C.ar    1  UNL1        0.0698
     13 C         140.7624  142.8304  168.6850 C.ar    1  UNL1        0.1433
     14 F         140.1468  143.9500  169.4708 F       1  UNL1       -0.2041
     15 C         140.6131  142.7907  167.1930 C.ar    1  UNL1        0.0299
     16 C         141.2286  141.6711  166.4071 C.ar    1  UNL1        0.0067
     17 C         141.9935  140.5912  167.1133 C.ar    1  UNL1        0.0540
     18 C         142.7583  138.6054  159.7776 C.3     1  UNL1        0.0212
     19 C         141.6605  138.2591  158.8159 C.3     1  UNL1        0.0488
     20 C         140.4598  139.1500  158.6960 C.3     1  UNL1        0.2054
     21 O         139.2839  138.9503  159.6057 O.3     1  UNL1       -0.4755
     22 C         138.7186  141.6334  163.1738 C.ar    1  UNL1        0.0505
     23 C         140.0872  141.4375  162.5921 C.ar    1  UNL1        0.0178
     24 C         140.2757  140.5432  161.4027 C.ar    1  UNL1        0.0382
     25 C         139.0955  139.8447  160.7951 C.ar    1  UNL1        0.1386
     26 C         137.7268  140.0406  161.3768 C.ar    1  UNL1        0.0382
     27 C         137.5383  140.9349  162.5662 C.ar    1  UNL1        0.0178
     28 C         137.8847  144.8380  165.3614 C.3     1  UNL1        0.0949
     29 C         138.0732  143.9436  164.1721 C.2     1  UNL1        0.2266
     30 O         137.8047  144.4651  162.7915 O.2     1  UNL1       -0.2748
     31 N         138.5301  142.5278  164.3632 N.am    1  UNL1       -0.2839
     32 H         138.7063  142.1855  165.2693 H       1  UNL1        0.1549
@<TRIPOS>BOND
     1    28    29    1
     2    29    30    2
     3    29    31   am
     4    31    22    1
     5    22    23   ar
     6    23    24   ar
     7    24    25   ar
     8    25    21    1
     9    21    20    1
    10    20    19    1
    11    19    18    1
    12    18     1    1
    13     1     2    1
    14     2     3    1
    15     3     4    1
    16     4     5    1
    17     5     8    1
    18     8     9   ar
    19     9    10   ar
    20    10    11   ar
    21    11    12   ar
    22    12    13   ar
    23    13    14    1
    24    13    15   ar
    25    15    16   ar
    26    16    17   ar
    27     5     6    1
    28     6     7    1
    29    25    26   ar
    30    26    27   ar
    31    27    22   ar
    32     7     2    1
    33    17     8   ar
    34    17    11   ar
    35    31    32    1
@<TRIPOS>MOLECULE
*****
 32 35 0 0 0
SMALL
GASTEIGER

@<TRIPOS>ATOM
      1 C         139.9438  138.0186  162.3635 C.3     1  UNL1        0.0722
      2 N         139.9210  138.5530  163.7649 N.3     1  UNL1       -0.2727
      3 C         138.6457  139.0929  164.3411 C.3     1  UNL1        0.0725
      4 C         138.6229  139.6272  165.7425 C.3     1  UNL1        0.0234
      5 C         139.8756  139.6217  166.5677 C.3     1  UNL1        0.0464
      6 C         141.1509  139.0819  165.9915 C.3     1  UNL1        0.0234
      7 C         141.1736  138.5475  164.5901 C.3     1  UNL1        0.0725
      8 C         139.8528  140.1561  167.9691 C.ar    1  UNL1        0.1003
      9 N         138.7955  139.8867  168.9984 N.ar    1  UNL1       -0.0814
     10 O         139.1726  140.6178  170.2526 O.2     1  UNL1       -0.3536
     11 C         140.4631  141.3390  169.9986 C.ar    1  UNL1        0.1787
     12 C         141.3097  142.2187  170.8700 C.ar    1  UNL1        0.0698
     13 C         142.5767  142.8130  170.3302 C.ar    1  UNL1        0.1433
     14 F         143.4234  143.6927  171.2016 F       1  UNL1       -0.2041
     15 C         142.9971  142.5276  168.9188 C.ar    1  UNL1        0.0299
     16 C         142.1505  141.6479  168.0474 C.ar    1  UNL1        0.0067
     17 C         140.8835  141.0537  168.5873 C.ar    1  UNL1        0.0540
     18 C         141.2531  137.7135  161.6983 C.3     1  UNL1        0.0212
     19 C         141.5768  138.3212  160.3656 C.3     1  UNL1        0.0488
     20 C         142.8122  139.1562  160.2023 C.3     1  UNL1        0.2054
     21 O         142.7376  140.6456  160.3644 O.3     1  UNL1       -0.4755
     22 C         140.2962  142.4266  163.6986 C.ar    1  UNL1        0.0505
     23 C         141.7497  142.1238  163.9124 C.ar    1  UNL1        0.0178
     24 C         142.5635  141.5302  162.8010 C.ar    1  UNL1        0.0382
     25 C         141.9238  141.2393  161.4758 C.ar    1  UNL1        0.1386
     26 C         140.4703  141.5420  161.2620 C.ar    1  UNL1        0.0382
     27 C         139.6565  142.1357  162.3735 C.ar    1  UNL1        0.0178
     28 C         138.3043  145.0686  165.8900 C.3     1  UNL1        0.0949
     29 C         139.1181  144.4749  164.7785 C.2     1  UNL1        0.2266
     30 O         139.5675  145.3360  163.6355 O.2     1  UNL1       -0.2748
     31 N         139.4824  143.0202  164.8101 N.am    1  UNL1       -0.2839
     32 H         139.1874  142.4551  165.5603 H       1  UNL1        0.1549
@<TRIPOS>BOND
     1    28    29    1
     2    29    30    2
     3    29    31   am
     4    31    22    1
     5    22    23   ar
     6    23    24   ar
     7    24    25   ar
     8    25    21    1
     9    21    20    1
    10    20    19    1
    11    19    18    1
    12    18     1    1
    13     1     2    1
    14     2     3    1
    15     3     4    1
    16     4     5    1
    17     5     8    1
    18     8     9   ar
    19     9    10   ar
    20    10    11   ar
    21    11    12   ar
    22    12    13   ar
    23    13    14    1
    24    13    15   ar
    25    15    16   ar
    26    16    17   ar
    27     5     6    1
    28     6     7    1
    29    25    26   ar
    30    26    27   ar
    31    27    22   ar
    32     7     2    1
    33    17     8   ar
    34    17    11   ar
    35    31    32    1
@<TRIPOS>MOLECULE
*****
 32 35 0 0 0
SMALL
GASTEIGER

@<TRIPOS>ATOM
      1 C         139.9485  145.2512  161.5013 C.3     1  UNL1        0.0722
      2 N         140.0782  144.6697  162.8779 N.3     1  UNL1       -0.2727
      3 C         138.8807  144.6003  163.7785 C.3     1  UNL1        0.0725
      4 C         139.0103  144.0188  165.1552 C.3     1  UNL1        0.0234
      5 C         140.3375  143.5067  165.6312 C.3     1  UNL1        0.0464
      6 C         141.5349  143.5762  164.7305 C.3     1  UNL1        0.0234
      7 C         141.4053  144.1577  163.3539 C.3     1  UNL1        0.0725
      8 C         140.4671  142.9253  167.0078 C.ar    1  UNL1        0.1003
      9 N         139.9009  143.5088  168.2683 N.ar    1  UNL1       -0.0814
     10 O         140.2696  142.6023  169.4051 O.2     1  UNL1       -0.3536
     11 C         141.0637  141.4586  168.8472 C.ar    1  UNL1        0.1787
     12 C         141.6914  140.2611  169.4969 C.ar    1  UNL1        0.0698
     13 C         142.4411  139.2633  168.6650 C.ar    1  UNL1        0.1433
     14 F         143.0689  138.0658  169.3147 F       1  UNL1       -0.2041
     15 C         142.5632  139.4629  167.1833 C.ar    1  UNL1        0.0299
     16 C         141.9356  140.6603  166.5336 C.ar    1  UNL1        0.0067
     17 C         141.1858  141.6582  167.3656 C.ar    1  UNL1        0.0540
     18 C         141.0327  145.0301  160.4885 C.3     1  UNL1        0.0212
     19 C         141.2016  143.6819  159.8529 C.3     1  UNL1        0.0488
     20 C         140.0137  142.9709  159.2756 C.3     1  UNL1        0.2054
     21 O         139.7077  141.5624  159.6911 O.3     1  UNL1       -0.4755
     22 C         138.5349  140.6759  163.9442 C.ar    1  UNL1        0.0505
     23 C         137.5154  141.2062  162.9800 C.ar    1  UNL1        0.0178
     24 C         137.9064  141.5017  161.5624 C.ar    1  UNL1        0.0382
     25 C         139.3168  141.2669  161.1088 C.ar    1  UNL1        0.1386
     26 C         140.3362  140.7366  162.0730 C.ar    1  UNL1        0.0382
     27 C         139.9452  140.4411  163.4906 C.ar    1  UNL1        0.0178
     28 C         137.7640  138.6714  167.2815 C.3     1  UNL1        0.0949
     29 C         138.1550  138.9669  165.8638 C.2     1  UNL1        0.2266
     30 O         138.5569  137.8489  164.9481 O.2     1  UNL1       -0.2748
     31 N         138.1439  140.3803  165.3618 N.am    1  UNL1       -0.2839
     32 H         137.8801  141.1141  165.9629 H       1  UNL1        0.1549
@<TRIPOS>BOND
     1    28    29    1
     2    29    30    2
     3    29    31   am
     4    31    22    1
     5    22    23   ar
     6    23    24   ar
     7    24    25   ar
     8    25    21    1
     9    21    20    1
    10    20    19    1
    11    19    18    1
    12    18     1    1
    13     1     2    1
    14     2     3    1
    15     3     4    1
    16     4     5    1
    17     5     8    1
    18     8     9   ar
    19     9    10   ar
    20    10    11   ar
    21    11    12   ar
    22    12    13   ar
    23    13    14    1
    24    13    15   ar
    25    15    16   ar
    26    16    17   ar
    27     5     6    1
    28     6     7    1
    29    25    26   ar
    30    26    27   ar
    31    27    22   ar
    32     7     2    1
    33    17     8   ar
    34    17    11   ar
    35    31    32    1
