@<TRIPOS>MOLECULE
*****
 28 30 0 0 0
SMALL
GASTEIGER

@<TRIPOS>ATOM
      1 C         139.1278  138.8755  165.6493 C.3     1  UNL1        0.0717
      2 C         138.1212  138.7238  166.7511 C.3     1  UNL1        0.0223
      3 C         138.3450  139.4021  168.0701 C.3     1  UNL1        0.0328
      4 C         139.5753  140.2322  168.2873 C.3     1  UNL1        0.1071
      5 O         138.9166  140.3875  169.6259 O.3     1  UNL1       -0.3827
      6 C         140.5819  140.3840  167.1856 C.3     1  UNL1        0.0328
      7 C         140.3581  139.7056  165.8665 C.3     1  UNL1        0.0223
      8 H         138.0838  139.8903  169.6361 H       1  UNL1        0.2107
      9 C         140.5769  141.1163  168.9694 C.ar    1  UNL1        0.0019
     10 C         141.9306  140.5786  169.3279 C.ar    1  UNL1        0.0011
     11 C         142.9322  141.4626  170.0101 C.ar    1  UNL1        0.0364
     12 C         142.5801  142.8843  170.3337 C.ar    1  UNL1        0.1337
     13 O         143.5817  143.7684  171.0159 O.3     1  UNL1       -0.5055
     14 C         141.2264  143.4220  169.9753 C.ar    1  UNL1        0.0364
     15 C         140.2249  142.5380  169.2931 C.ar    1  UNL1        0.0011
     16 H         144.4273  143.4325  171.2398 H       1  UNL1        0.2922
     17 O         138.0124  140.4255  163.3356 O.2     1  UNL1       -0.2751
     18 C         138.3463  138.9722  163.1735 C.2     1  UNL1        0.2228
     19 N         138.9040  138.1972  164.3303 N.am    1  UNL1       -0.3060
     20 H         139.1231  137.2433  164.2239 H       1  UNL1        0.1494
     21 C         138.1225  138.2938  161.8544 C.3     1  UNL1        0.0897
     22 C         139.2627  138.1256  160.8946 C.3     1  UNL1        0.0359
     23 C         140.6312  138.6183  161.2617 C.ar    1  UNL1       -0.0217
     24 C         141.0388  140.0216  160.9235 C.ar    1  UNL1       -0.0043
     25 C         142.4071  140.5143  161.2907 C.ar    1  UNL1       -0.0003
     26 C         143.3679  139.6036  161.9961 C.ar    1  UNL1       -0.0000
     27 C         142.9602  138.2002  162.3344 C.ar    1  UNL1       -0.0003
     28 C         141.5919  137.7076  161.9672 C.ar    1  UNL1       -0.0043
@<TRIPOS>BOND
     1    17    18    2
     2    18    21    1
     3    21    22    1
     4    22    23    1
     5    23    24   ar
     6    24    25   ar
     7    25    26   ar
     8    26    27   ar
     9    27    28   ar
    10    18    19   am
    11     1    19    1
    12     1     2    1
    13     2     3    1
    14     3     4    1
    15     4     5    1
    16     4     9    1
    17     9    10   ar
    18    10    11   ar
    19    11    12   ar
    20    12    13    1
    21    12    14   ar
    22    14    15   ar
    23     4     6    1
    24     6     7    1
    25    28    23   ar
    26     7     1    1
    27    15     9   ar
    28    19    20    1
    29     5     8    1
    30    13    16    1
@<TRIPOS>MOLECULE
*****
 28 30 0 0 0
SMALL
GASTEIGER

@<TRIPOS>ATOM
      1 C         138.3776  140.2906  165.2544 C.3     1  UNL1        0.0717
      2 C         138.0524  139.2593  166.2941 C.3     1  UNL1        0.0223
      3 C         138.7003  139.3262  167.6452 C.3     1  UNL1        0.0328
      4 C         139.6735  140.4244  167.9568 C.3     1  UNL1        0.1071
      5 O         139.6880  139.6854  169.2620 O.3     1  UNL1       -0.3827
      6 C         139.9987  141.4555  166.9172 C.3     1  UNL1        0.0328
      7 C         139.3508  141.3887  165.5659 C.3     1  UNL1        0.0223
      8 H         139.0871  138.9257  169.2102 H       1  UNL1        0.2107
      9 C         140.6517  141.2658  168.7216 C.ar    1  UNL1        0.0019
     10 C         140.2506  142.6268  169.2083 C.ar    1  UNL1        0.0011
     11 C         141.2288  143.4683  169.9732 C.ar    1  UNL1        0.0364
     12 C         142.6082  142.9488  170.2513 C.ar    1  UNL1        0.1337
     13 O         143.5865  143.7903  171.0161 O.3     1  UNL1       -0.5055
     14 C         143.0093  141.5879  169.7646 C.ar    1  UNL1        0.0364
     15 C         142.0311  140.7464  168.9998 C.ar    1  UNL1        0.0011
     16 H         143.3359  144.6404  171.3202 H       1  UNL1        0.2922
     17 O         139.4438  138.4139  163.1709 O.2     1  UNL1       -0.2751
     18 C         138.2627  139.2853  162.8615 C.2     1  UNL1        0.2228
     19 N         137.7296  140.2236  163.9033 N.am    1  UNL1       -0.3060
     20 H         136.9544  140.7956  163.7002 H       1  UNL1        0.1494
     21 C         137.6147  139.2184  161.5103 C.3     1  UNL1        0.0897
     22 C         137.9192  140.2650  160.4798 C.3     1  UNL1        0.0359
     23 C         138.8395  141.4014  160.8142 C.ar    1  UNL1       -0.0217
     24 C         138.2833  142.6773  161.3733 C.ar    1  UNL1       -0.0043
     25 C         139.2035  143.8136  161.7076 C.ar    1  UNL1       -0.0003
     26 C         140.6800  143.6741  161.4828 C.ar    1  UNL1       -0.0000
     27 C         141.2362  142.3981  160.9237 C.ar    1  UNL1       -0.0003
     28 C         140.3160  141.2618  160.5894 C.ar    1  UNL1       -0.0043
@<TRIPOS>BOND
     1    17    18    2
     2    18    21    1
     3    21    22    1
     4    22    23    1
     5    23    24   ar
     6    24    25   ar
     7    25    26   ar
     8    26    27   ar
     9    27    28   ar
    10    18    19   am
    11     1    19    1
    12     1     2    1
    13     2     3    1
    14     3     4    1
    15     4     5    1
    16     4     9    1
    17     9    10   ar
    18    10    11   ar
    19    11    12   ar
    20    12    13    1
    21    12    14   ar
    22    14    15   ar
    23     4     6    1
    24     6     7    1
    25    28    23   ar
    26     7     1    1
    27    15     9   ar
    28    19    20    1
    29     5     8    1
    30    13    16    1
@<TRIPOS>MOLECULE
*****
 28 30 0 0 0
SMALL
GASTEIGER

@<TRIPOS>ATOM
      1 C         139.4252  140.8215  164.1476 C.3     1  UNL1        0.0717
      2 C         138.3331  139.9046  164.6131 C.3     1  UNL1        0.0223
      3 C         138.2844  139.4631  166.0459 C.3     1  UNL1        0.0328
      4 C         139.3277  139.9385  167.0131 C.3     1  UNL1        0.1071
      5 O         138.4978  139.0837  167.9244 O.3     1  UNL1       -0.3827
      6 C         140.4198  140.8554  166.5475 C.3     1  UNL1        0.0328
      7 C         140.4685  141.2969  165.1148 C.3     1  UNL1        0.0223
      8 H         137.7623  138.6970  167.4241 H       1  UNL1        0.2107
      9 C         140.0828  140.1170  168.2967 C.ar    1  UNL1        0.0019
     10 C         139.3610  140.5540  169.5369 C.ar    1  UNL1        0.0011
     11 C         140.1162  140.7325  170.8207 C.ar    1  UNL1        0.0364
     12 C         141.5930  140.4741  170.8642 C.ar    1  UNL1        0.1337
     13 O         142.3482  140.6526  172.1479 O.3     1  UNL1       -0.5055
     14 C         142.3148  140.0372  169.6240 C.ar    1  UNL1        0.0364
     15 C         141.5597  139.8586  168.3403 C.ar    1  UNL1        0.0011
     16 H         141.8974  140.9255  172.9226 H       1  UNL1        0.2922
     17 O         137.7222  143.1125  163.2252 O.2     1  UNL1       -0.2751
     18 C         138.6225  142.4084  162.2537 C.2     1  UNL1        0.2228
     19 N         139.4740  141.2629  162.7149 N.am    1  UNL1       -0.3060
     20 H         140.0648  140.8008  162.0772 H       1  UNL1        0.1494
     21 C         138.6712  142.8499  160.8209 C.3     1  UNL1        0.0897
     22 C         139.7569  143.7755  160.3578 C.3     1  UNL1        0.0359
     23 C         140.9046  144.0999  161.2676 C.ar    1  UNL1       -0.0217
     24 C         140.7253  145.0947  162.3757 C.ar    1  UNL1       -0.0043
     25 C         141.8729  145.4191  163.2854 C.ar    1  UNL1       -0.0003
     26 C         143.2000  144.7485  163.0869 C.ar    1  UNL1       -0.0000
     27 C         143.3793  143.7537  161.9788 C.ar    1  UNL1       -0.0003
     28 C         142.2316  143.4294  161.0691 C.ar    1  UNL1       -0.0043
@<TRIPOS>BOND
     1    17    18    2
     2    18    21    1
     3    21    22    1
     4    22    23    1
     5    23    24   ar
     6    24    25   ar
     7    25    26   ar
     8    26    27   ar
     9    27    28   ar
    10    18    19   am
    11     1    19    1
    12     1     2    1
    13     2     3    1
    14     3     4    1
    15     4     5    1
    16     4     9    1
    17     9    10   ar
    18    10    11   ar
    19    11    12   ar
    20    12    13    1
    21    12    14   ar
    22    14    15   ar
    23     4     6    1
    24     6     7    1
    25    28    23   ar
    26     7     1    1
    27    15     9   ar
    28    19    20    1
    29     5     8    1
    30    13    16    1
@<TRIPOS>MOLECULE
*****
 28 30 0 0 0
SMALL
GASTEIGER

@<TRIPOS>ATOM
      1 C         141.6220  139.3725  164.2582 C.3     1  UNL1        0.0717
      2 C         142.7123  138.5004  164.8067 C.3     1  UNL1        0.0223
      3 C         143.0381  138.5383  166.2704 C.3     1  UNL1        0.0328
      4 C         142.2736  139.4483  167.1856 C.3     1  UNL1        0.1071
      5 O         143.2116  138.8160  168.1707 O.3     1  UNL1       -0.3827
      6 C         141.1834  140.3203  166.6371 C.3     1  UNL1        0.0328
      7 C         140.8575  140.2825  165.1734 C.3     1  UNL1        0.0223
      8 H         143.7861  138.1843  167.7105 H       1  UNL1        0.2107
      9 C         141.8349  140.1387  168.4429 C.ar    1  UNL1        0.0019
     10 C         142.8287  140.9074  169.2622 C.ar    1  UNL1        0.0011
     11 C         142.3900  141.5979  170.5197 C.ar    1  UNL1        0.0364
     12 C         140.9575  141.5194  170.9576 C.ar    1  UNL1        0.1337
     13 O         140.5188  142.2098  172.2150 O.3     1  UNL1       -0.5055
     14 C         139.9638  140.7506  170.1382 C.ar    1  UNL1        0.0364
     15 C         140.4025  140.0603  168.8809 C.ar    1  UNL1        0.0011
     16 H         141.1395  142.6901  172.7268 H       1  UNL1        0.2922
     17 O         139.6261  137.3897  163.2167 O.2     1  UNL1       -0.2751
     18 C         140.2982  138.3432  162.2738 C.2     1  UNL1        0.2228
     19 N         141.2962  139.3346  162.7945 N.am    1  UNL1       -0.3060
     20 H         141.7373  139.9604  162.1756 H       1  UNL1        0.1494
     21 C         139.9724  138.3052  160.8100 C.3     1  UNL1        0.0897
     22 C         138.9747  139.2685  160.2385 C.3     1  UNL1        0.0359
     23 C         138.6167  140.5139  160.9941 C.ar    1  UNL1       -0.0217
     24 C         139.2071  141.8322  160.5899 C.ar    1  UNL1       -0.0043
     25 C         138.8491  143.0776  161.3455 C.ar    1  UNL1       -0.0003
     26 C         137.9007  143.0046  162.5053 C.ar    1  UNL1       -0.0000
     27 C         137.3103  141.6863  162.9096 C.ar    1  UNL1       -0.0003
     28 C         137.6683  140.4410  162.1540 C.ar    1  UNL1       -0.0043
@<TRIPOS>BOND
     1    17    18    2
     2    18    21    1
     3    21    22    1
     4    22    23    1
     5    23    24   ar
     6    24    25   ar
     7    25    26   ar
     8    26    27   ar
     9    27    28   ar
    10    18    19   am
    11     1    19    1
    12     1     2    1
    13     2     3    1
    14     3     4    1
    15     4     5    1
    16     4     9    1
    17     9    10   ar
    18    10    11   ar
    19    11    12   ar
    20    12    13    1
    21    12    14   ar
    22    14    15   ar
    23     4     6    1
    24     6     7    1
    25    28    23   ar
    26     7     1    1
    27    15     9   ar
    28    19    20    1
    29     5     8    1
    30    13    16    1
@<TRIPOS>MOLECULE
*****
 28 30 0 0 0
SMALL
GASTEIGER

@<TRIPOS>ATOM
      1 C         143.0062  140.2581  164.4860 C.3     1  UNL1        0.0717
      2 C         143.5849  139.0039  165.0709 C.3     1  UNL1        0.0223
      3 C         143.4458  138.7273  166.5386 C.3     1  UNL1        0.0328
      4 C         142.7280  139.7048  167.4213 C.3     1  UNL1        0.1071
      5 O         143.1026  138.6646  168.4351 O.3     1  UNL1       -0.3827
      6 C         142.1493  140.9589  166.8364 C.3     1  UNL1        0.0328
      7 C         142.2883  141.2356  165.3687 C.3     1  UNL1        0.0223
      8 H         143.5875  137.9471  167.9981 H       1  UNL1        0.2107
      9 C         142.1403  140.3210  168.6561 C.ar    1  UNL1        0.0019
     10 C         140.7628  139.9326  169.1054 C.ar    1  UNL1        0.0011
     11 C         140.1750  140.5488  170.3403 C.ar    1  UNL1        0.0364
     12 C         140.9647  141.5535  171.1258 C.ar    1  UNL1        0.1337
     13 O         140.3770  142.1698  172.3606 O.3     1  UNL1       -0.5055
     14 C         142.3421  141.9419  170.6765 C.ar    1  UNL1        0.0364
     15 C         142.9298  141.3257  169.4417 C.ar    1  UNL1        0.0011
     16 H         139.5165  141.9272  172.6413 H       1  UNL1        0.2922
     17 O         145.2477  141.9861  163.4912 O.2     1  UNL1       -0.2751
     18 C         144.2660  141.3988  162.5209 C.2     1  UNL1        0.2228
     19 N         143.1453  140.5348  163.0183 N.am    1  UNL1       -0.3060
     20 H         142.5010  140.1493  162.3815 H       1  UNL1        0.1494
     21 C         144.4052  141.6755  161.0532 C.3     1  UNL1        0.0897
     22 C         143.7837  142.9048  160.4595 C.3     1  UNL1        0.0359
     23 C         142.6286  143.5688  161.1486 C.ar    1  UNL1       -0.0217
     24 C         142.8740  144.4803  162.3143 C.ar    1  UNL1       -0.0043
     25 C         141.7189  145.1443  163.0034 C.ar    1  UNL1       -0.0003
     26 C         140.3184  144.8967  162.5268 C.ar    1  UNL1       -0.0000
     27 C         140.0729  143.9851  161.3611 C.ar    1  UNL1       -0.0003
     28 C         141.2280  143.3212  160.6720 C.ar    1  UNL1       -0.0043
@<TRIPOS>BOND
     1    17    18    2
     2    18    21    1
     3    21    22    1
     4    22    23    1
     5    23    24   ar
     6    24    25   ar
     7    25    26   ar
     8    26    27   ar
     9    27    28   ar
    10    18    19   am
    11     1    19    1
    12     1     2    1
    13     2     3    1
    14     3     4    1
    15     4     5    1
    16     4     9    1
    17     9    10   ar
    18    10    11   ar
    19    11    12   ar
    20    12    13    1
    21    12    14   ar
    22    14    15   ar
    23     4     6    1
    24     6     7    1
    25    28    23   ar
    26     7     1    1
    27    15     9   ar
    28    19    20    1
    29     5     8    1
    30    13    16    1
@<TRIPOS>MOLECULE
*****
 28 30 0 0 0
SMALL
GASTEIGER

@<TRIPOS>ATOM
      1 C         140.0513  139.6611  164.0046 C.3     1  UNL1        0.0717
      2 C         138.7234  139.1949  164.5238 C.3     1  UNL1        0.0223
      3 C         138.4632  139.1678  166.0007 C.3     1  UNL1        0.0328
      4 C         139.5308  139.6068  166.9586 C.3     1  UNL1        0.1071
      5 O         138.4424  139.2502  167.9272 O.3     1  UNL1       -0.3827
      6 C         140.8586  140.0729  166.4395 C.3     1  UNL1        0.0328
      7 C         141.1189  140.1001  164.9624 C.3     1  UNL1        0.0223
      8 H         137.6639  138.9399  167.4388 H       1  UNL1        0.2107
      9 C         140.2204  139.9220  168.2528 C.ar    1  UNL1        0.0019
     10 C         139.4478  140.5299  169.3857 C.ar    1  UNL1        0.0011
     11 C         140.1374  140.8451  170.6800 C.ar    1  UNL1        0.0364
     12 C         141.5997  140.5523  170.8413 C.ar    1  UNL1        0.1337
     13 O         142.2894  140.8674  172.1356 O.3     1  UNL1       -0.5055
     14 C         142.3723  139.9443  169.7085 C.ar    1  UNL1        0.0364
     15 C         141.6827  139.6292  168.4142 C.ar    1  UNL1        0.0011
     16 H         141.8067  141.2472  172.8433 H       1  UNL1        0.2922
     17 O         141.0063  137.1859  162.6042 O.2     1  UNL1       -0.2751
     18 C         140.7891  138.4506  161.8274 C.2     1  UNL1        0.2228
     19 N         140.3116  139.6882  162.5276 N.am    1  UNL1       -0.3060
     20 H         140.1690  140.5182  162.0178 H       1  UNL1        0.1494
     21 C         141.0493  138.4776  160.3503 C.3     1  UNL1        0.0897
     22 C         142.4091  138.8456  159.8350 C.3     1  UNL1        0.0359
     23 C         143.2263  139.8819  160.5480 C.ar    1  UNL1       -0.0217
     24 C         143.9568  139.5243  161.8083 C.ar    1  UNL1       -0.0043
     25 C         144.7739  140.5606  162.5213 C.ar    1  UNL1       -0.0003
     26 C         144.8605  141.9545  161.9739 C.ar    1  UNL1       -0.0000
     27 C         144.1300  142.3121  160.7136 C.ar    1  UNL1       -0.0003
     28 C         143.3129  141.2758  160.0007 C.ar    1  UNL1       -0.0043
@<TRIPOS>BOND
     1    17    18    2
     2    18    21    1
     3    21    22    1
     4    22    23    1
     5    23    24   ar
     6    24    25   ar
     7    25    26   ar
     8    26    27   ar
     9    27    28   ar
    10    18    19   am
    11     1    19    1
    12     1     2    1
    13     2     3    1
    14     3     4    1
    15     4     5    1
    16     4     9    1
    17     9    10   ar
    18    10    11   ar
    19    11    12   ar
    20    12    13    1
    21    12    14   ar
    22    14    15   ar
    23     4     6    1
    24     6     7    1
    25    28    23   ar
    26     7     1    1
    27    15     9   ar
    28    19    20    1
    29     5     8    1
    30    13    16    1
@<TRIPOS>MOLECULE
*****
 28 30 0 0 0
SMALL
GASTEIGER

@<TRIPOS>ATOM
      1 C         141.4557  139.9707  164.0080 C.3     1  UNL1        0.0717
      2 C         142.3423  138.8150  164.3664 C.3     1  UNL1        0.0223
      3 C         142.8520  138.6677  165.7694 C.3     1  UNL1        0.0328
      4 C         142.4752  139.6759  166.8140 C.3     1  UNL1        0.1071
      5 O         143.3345  138.7599  167.6341 O.3     1  UNL1       -0.3827
      6 C         141.5886  140.8316  166.4557 C.3     1  UNL1        0.0328
      7 C         141.0789  140.9790  165.0527 C.3     1  UNL1        0.0223
      8 H         143.6607  138.0368  167.0759 H       1  UNL1        0.2107
      9 C         142.3968  140.3661  168.1435 C.ar    1  UNL1        0.0019
     10 C         141.7973  139.6578  169.3220 C.ar    1  UNL1        0.0011
     11 C         141.7188  140.3479  170.6516 C.ar    1  UNL1        0.0364
     12 C         142.2399  141.7464  170.8025 C.ar    1  UNL1        0.1337
     13 O         142.1615  142.4366  172.1320 O.3     1  UNL1       -0.5055
     14 C         142.8394  142.4547  169.6240 C.ar    1  UNL1        0.0364
     15 C         142.9178  141.7645  168.2945 C.ar    1  UNL1        0.0011
     16 H         141.7870  141.9941  172.8682 H       1  UNL1        0.2922
     17 O         142.8668  141.7877  162.0826 O.2     1  UNL1       -0.2751
     18 C         141.6516  141.0266  161.6423 C.2     1  UNL1        0.2228
     19 N         140.9460  140.1181  162.6050 N.am    1  UNL1       -0.3060
     20 H         140.1484  139.6186  162.3160 H       1  UNL1        0.1494
     21 C         141.1419  141.1740  160.2392 C.3     1  UNL1        0.0897
     22 C         140.1799  142.2746  159.9025 C.3     1  UNL1        0.0359
     23 C         139.4658  143.0081  160.9989 C.ar    1  UNL1       -0.0217
     24 C         139.9282  144.3738  161.4124 C.ar    1  UNL1       -0.0043
     25 C         139.2141  145.1073  162.5087 C.ar    1  UNL1       -0.0003
     26 C         138.0377  144.4751  163.1916 C.ar    1  UNL1       -0.0000
     27 C         137.5753  143.1094  162.7781 C.ar    1  UNL1       -0.0003
     28 C         138.2894  142.3759  161.6818 C.ar    1  UNL1       -0.0043
@<TRIPOS>BOND
     1    17    18    2
     2    18    21    1
     3    21    22    1
     4    22    23    1
     5    23    24   ar
     6    24    25   ar
     7    25    26   ar
     8    26    27   ar
     9    27    28   ar
    10    18    19   am
    11     1    19    1
    12     1     2    1
    13     2     3    1
    14     3     4    1
    15     4     5    1
    16     4     9    1
    17     9    10   ar
    18    10    11   ar
    19    11    12   ar
    20    12    13    1
    21    12    14   ar
    22    14    15   ar
    23     4     6    1
    24     6     7    1
    25    28    23   ar
    26     7     1    1
    27    15     9   ar
    28    19    20    1
    29     5     8    1
    30    13    16    1
@<TRIPOS>MOLECULE
*****
 28 30 0 0 0
SMALL
GASTEIGER

@<TRIPOS>ATOM
      1 C         142.6030  141.1984  163.9380 C.3     1  UNL1        0.0717
      2 C         143.6027  142.2385  164.3493 C.3     1  UNL1        0.0223
      3 C         143.7645  142.5917  165.7980 C.3     1  UNL1        0.0328
      4 C         142.9268  141.9050  166.8356 C.3     1  UNL1        0.1071
      5 O         143.7327  142.8165  167.7130 O.3     1  UNL1       -0.3827
      6 C         141.9271  140.8650  166.4244 C.3     1  UNL1        0.0328
      7 C         141.7652  140.5117  164.9756 C.3     1  UNL1        0.0223
      8 H         144.3384  143.3401  167.1654 H       1  UNL1        0.2107
      9 C         142.3689  141.5349  168.1779 C.ar    1  UNL1        0.0019
     10 C         142.4527  140.1169  168.6597 C.ar    1  UNL1        0.0011
     11 C         141.8947  139.7466  170.0021 C.ar    1  UNL1        0.0364
     12 C         141.2531  140.7944  170.8624 C.ar    1  UNL1        0.1337
     13 O         140.6952  140.4243  172.2048 O.3     1  UNL1       -0.5055
     14 C         141.1694  142.2124  170.3806 C.ar    1  UNL1        0.0364
     15 C         141.7272  142.5826  169.0383 C.ar    1  UNL1        0.0011
     16 H         140.7475  139.5385  172.5058 H       1  UNL1        0.2922
     17 O         144.2167  138.9664  162.7491 O.2     1  UNL1       -0.2751
     18 C         143.2480  139.7291  161.8948 C.2     1  UNL1        0.2228
     19 N         142.4411  140.8451  162.4893 N.am    1  UNL1       -0.3060
     20 H         141.8054  141.3458  161.9286 H       1  UNL1        0.1494
     21 C         143.0862  139.3758  160.4460 C.3     1  UNL1        0.0897
     22 C         141.9776  138.4612  160.0163 C.3     1  UNL1        0.0359
     23 C         140.6629  138.4855  160.7382 C.ar    1  UNL1       -0.0217
     24 C         140.5083  137.7559  162.0396 C.ar    1  UNL1       -0.0043
     25 C         139.1937  137.7802  162.7614 C.ar    1  UNL1       -0.0003
     26 C         138.0336  138.5341  162.1818 C.ar    1  UNL1       -0.0000
     27 C         138.1882  139.2637  160.8804 C.ar    1  UNL1       -0.0003
     28 C         139.5029  139.2394  160.1586 C.ar    1  UNL1       -0.0043
@<TRIPOS>BOND
     1    17    18    2
     2    18    21    1
     3    21    22    1
     4    22    23    1
     5    23    24   ar
     6    24    25   ar
     7    25    26   ar
     8    26    27   ar
     9    27    28   ar
    10    18    19   am
    11     1    19    1
    12     1     2    1
    13     2     3    1
    14     3     4    1
    15     4     5    1
    16     4     9    1
    17     9    10   ar
    18    10    11   ar
    19    11    12   ar
    20    12    13    1
    21    12    14   ar
    22    14    15   ar
    23     4     6    1
    24     6     7    1
    25    28    23   ar
    26     7     1    1
    27    15     9   ar
    28    19    20    1
    29     5     8    1
    30    13    16    1
@<TRIPOS>MOLECULE
*****
 28 30 0 0 0
SMALL
GASTEIGER

@<TRIPOS>ATOM
      1 C         141.1770  139.4672  164.0696 C.3     1  UNL1        0.0717
      2 C         142.3430  138.6315  164.5080 C.3     1  UNL1        0.0223
      3 C         142.7776  138.6447  165.9435 C.3     1  UNL1        0.0328
      4 C         142.0461  139.4935  166.9408 C.3     1  UNL1        0.1071
      5 O         143.0832  138.8785  167.8331 O.3     1  UNL1       -0.3827
      6 C         140.8801  140.3291  166.5025 C.3     1  UNL1        0.0328
      7 C         140.4455  140.3159  165.0668 C.3     1  UNL1        0.0223
      8 H         143.6481  138.2866  167.3121 H       1  UNL1        0.2107
      9 C         141.6749  140.1287  168.2479 C.ar    1  UNL1        0.0019
     10 C         140.2611  140.0535  168.7435 C.ar    1  UNL1        0.0011
     11 C         139.8898  140.6888  170.0508 C.ar    1  UNL1        0.0364
     12 C         140.9322  141.3991  170.8623 C.ar    1  UNL1        0.1337
     13 O         140.5610  142.0344  172.1695 O.3     1  UNL1       -0.5055
     14 C         142.3460  141.4743  170.3666 C.ar    1  UNL1        0.0364
     15 C         142.7172  140.8391  169.0595 C.ar    1  UNL1        0.0011
     16 H         139.6778  141.9874  172.4791 H       1  UNL1        0.2922
     17 O         139.2040  137.4172  163.1185 O.2     1  UNL1       -0.2751
     18 C         139.7559  138.4290  162.1585 C.2     1  UNL1        0.2228
     19 N         140.7424  139.4539  162.6340 N.am    1  UNL1       -0.3060
     20 H         141.1047  140.1180  162.0039 H       1  UNL1        0.1494
     21 C         139.3213  138.4157  160.7228 C.3     1  UNL1        0.0897
     22 C         140.1469  139.1134  159.6828 C.3     1  UNL1        0.0359
     23 C         140.7328  138.3337  158.5431 C.ar    1  UNL1       -0.0217
     24 C         139.8543  137.8789  157.4155 C.ar    1  UNL1       -0.0043
     25 C         140.4403  137.0993  156.2759 C.ar    1  UNL1       -0.0003
     26 C         141.9046  136.7745  156.2638 C.ar    1  UNL1       -0.0000
     27 C         142.7831  137.2293  157.3913 C.ar    1  UNL1       -0.0003
     28 C         142.1971  138.0089  158.5310 C.ar    1  UNL1       -0.0043
@<TRIPOS>BOND
     1    17    18    2
     2    18    21    1
     3    21    22    1
     4    22    23    1
     5    23    24   ar
     6    24    25   ar
     7    25    26   ar
     8    26    27   ar
     9    27    28   ar
    10    18    19   am
    11     1    19    1
    12     1     2    1
    13     2     3    1
    14     3     4    1
    15     4     5    1
    16     4     9    1
    17     9    10   ar
    18    10    11   ar
    19    11    12   ar
    20    12    13    1
    21    12    14   ar
    22    14    15   ar
    23     4     6    1
    24     6     7    1
    25    28    23   ar
    26     7     1    1
    27    15     9   ar
    28    19    20    1
    29     5     8    1
    30    13    16    1
