@<TRIPOS>MOLECULE
*****
 37 40 0 0 0
SMALL
GASTEIGER

@<TRIPOS>ATOM
      1 C         138.3705  139.1710  162.4261 C.ar    1  UNL1        0.0859
      2 C         138.8758  137.9667  163.1639 C.ar    1  UNL1        0.1060
      3 N         138.9402  137.9775  164.6624 N.ar    1  UNL1       -0.2288
      4 C         138.4994  139.1927  165.4233 C.ar    1  UNL1        0.1345
      5 C         137.9941  140.3970  164.6856 C.ar    1  UNL1        0.0492
      6 C         137.9297  140.3862  163.1870 C.ar    1  UNL1        0.0571
      7 C         139.4819  138.8887  158.6268 C.3     1  UNL1        0.1109
      8 N         139.5464  138.8996  160.1254 N.am    1  UNL1       -0.2991
      9 C         138.3060  139.1601  160.9276 C.2     1  UNL1        0.2486
     10 O         137.0012  139.4097  160.2312 O.2     1  UNL1       -0.2700
     11 H         140.4028  138.7357  160.5824 H       1  UNL1        0.1498
     12 N         138.5639  139.2036  166.9219 N.pl3   1  UNL1       -0.2833
     13 H         137.8751  138.7363  167.4476 H       1  UNL1        0.1550
     14 C         139.6778  139.9265  167.6194 C.ar    1  UNL1        0.1357
     15 C         140.7571  140.5925  166.8184 C.ar    1  UNL1        0.0492
     16 C         141.8710  141.3154  167.5160 C.ar    1  UNL1        0.0635
     17 C         142.9504  141.9814  166.7150 C.3     1  UNL1        0.0522
     18 N         141.9057  141.3723  169.0145 N.ar    1  UNL1       -0.2349
     19 C         140.8264  140.7063  169.8155 C.ar    1  UNL1        0.1406
     20 C         140.8611  140.7631  171.3140 C.3     1  UNL1        0.0737
     21 N         139.7124  139.9833  169.1179 N.ar    1  UNL1       -0.2159
     22 N         137.4243  141.5906  162.4493 N.pl3   1  UNL1       -0.3099
     23 H         136.5377  141.5698  162.0218 H       1  UNL1        0.1523
     24 C         138.2699  142.8265  162.3629 C.ar    1  UNL1        0.0829
     25 C         138.3181  143.7843  163.5162 C.ar    1  UNL1        0.0177
     26 C         139.1637  145.0203  163.4298 C.ar    1  UNL1        0.0016
     27 C         139.9610  145.2984  162.1901 C.ar    1  UNL1        0.0062
     28 C         139.9127  144.3406  161.0367 C.ar    1  UNL1        0.0727
     29 C         139.0672  143.1047  161.1231 C.ar    1  UNL1        0.1549
     30 C         140.7100  144.6187  159.7970 C.ar    1  UNL1        0.1862
     31 N         142.1291  144.2007  159.5490 N.ar    1  UNL1       -0.2033
     32 C         142.5243  144.6873  158.1863 C.ar    1  UNL1        0.1972
     33 N         141.3494  145.4060  157.5920 N.ar    1  UNL1       -0.2281
     34 C         141.3038  146.0535  156.2397 C.3     1  UNL1        0.1556
     35 N         140.2281  145.3636  158.5875 N.ar    1  UNL1       -0.1483
     36 O         139.0189  142.1468  159.9697 O.3     1  UNL1       -0.4701
     37 C         138.1170  142.4224  158.8032 C.3     1  UNL1        0.2525
@<TRIPOS>BOND
     1     7     8    1
     2     8     9   am
     3     9    10    2
     4     9     1    1
     5     1     2   ar
     6     2     3   ar
     7     3     4   ar
     8     4    12    1
     9    12    14    1
    10    14    15   ar
    11    15    16   ar
    12    16    17    1
    13    16    18   ar
    14    18    19   ar
    15    19    20    1
    16    19    21   ar
    17     4     5   ar
    18     5     6   ar
    19     6    22    1
    20    22    24    1
    21    24    25   ar
    22    25    26   ar
    23    26    27   ar
    24    27    28   ar
    25    28    30    1
    26    30    31   ar
    27    31    32   ar
    28    32    33   ar
    29    33    34    1
    30    33    35   ar
    31    28    29   ar
    32    29    36    1
    33    36    37    1
    34     6     1   ar
    35    29    24   ar
    36    21    14   ar
    37    35    30   ar
    38     8    11    1
    39    12    13    1
    40    22    23    1
@<TRIPOS>MOLECULE
*****
 37 40 0 0 0
SMALL
GASTEIGER

@<TRIPOS>ATOM
      1 C         143.8032  142.9320  158.6562 C.ar    1  UNL1        0.0859
      2 C         142.9341  143.9284  157.9479 C.ar    1  UNL1        0.1060
      3 N         141.8935  144.6927  158.7114 N.ar    1  UNL1       -0.2288
      4 C         141.7219  144.4605  160.1834 C.ar    1  UNL1        0.1345
      5 C         142.5910  143.4641  160.8917 C.ar    1  UNL1        0.0492
      6 C         143.6317  142.6999  160.1282 C.ar    1  UNL1        0.0571
      7 C         146.9728  142.1380  156.4039 C.3     1  UNL1        0.1109
      8 N         145.9322  142.9022  157.1674 N.am    1  UNL1       -0.2991
      9 C         144.8438  142.1677  157.8927 C.2     1  UNL1        0.2486
     10 O         144.7961  140.6690  157.8543 O.2     1  UNL1       -0.2700
     11 H         145.9635  143.8859  157.1926 H       1  UNL1        0.1498
     12 N         140.6813  145.2248  160.9469 N.pl3   1  UNL1       -0.2833
     13 H         140.5750  146.1925  160.8004 H       1  UNL1        0.1550
     14 C         139.8027  144.5146  161.9337 C.ar    1  UNL1        0.1357
     15 C         139.5876  145.0951  163.3001 C.ar    1  UNL1        0.0492
     16 C         138.7091  144.3849  164.2868 C.ar    1  UNL1        0.0635
     17 C         138.4940  144.9654  165.6532 C.3     1  UNL1        0.0522
     18 N         138.0455  143.0943  163.9073 N.ar    1  UNL1       -0.2349
     19 C         138.2606  142.5139  162.5410 C.ar    1  UNL1        0.1406
     20 C         137.5970  141.2232  162.1615 C.3     1  UNL1        0.0737
     21 N         139.1392  143.2240  161.5542 N.ar    1  UNL1       -0.2159
     22 N         144.5008  141.7034  160.8366 N.pl3   1  UNL1       -0.3099
     23 H         145.4767  141.8304  160.8602 H       1  UNL1        0.1523
     24 C         143.8828  140.5135  161.5090 C.ar    1  UNL1        0.0829
     25 C         143.6530  139.2497  160.7344 C.ar    1  UNL1        0.0177
     26 C         143.0351  138.0597  161.4069 C.ar    1  UNL1        0.0016
     27 C         142.6470  138.1336  162.8539 C.ar    1  UNL1        0.0062
     28 C         142.8768  139.3974  163.6285 C.ar    1  UNL1        0.0727
     29 C         143.4947  140.5873  162.9561 C.ar    1  UNL1        0.1549
     30 C         142.4887  139.4712  165.0756 C.ar    1  UNL1        0.1862
     31 N         143.3801  139.1706  166.2439 N.ar    1  UNL1       -0.2033
     32 C         142.5834  139.3723  167.4988 C.ar    1  UNL1        0.1972
     33 N         141.1996  139.7976  167.1059 N.ar    1  UNL1       -0.2281
     34 C         140.0722  140.1073  168.0456 C.3     1  UNL1        0.1556
     35 N         141.1411  139.8587  165.6083 N.ar    1  UNL1       -0.1483
     36 O         143.7246  141.8511  163.7307 O.3     1  UNL1       -0.4701
     37 C         145.0795  142.1433  164.3043 C.3     1  UNL1        0.2525
@<TRIPOS>BOND
     1     7     8    1
     2     8     9   am
     3     9    10    2
     4     9     1    1
     5     1     2   ar
     6     2     3   ar
     7     3     4   ar
     8     4    12    1
     9    12    14    1
    10    14    15   ar
    11    15    16   ar
    12    16    17    1
    13    16    18   ar
    14    18    19   ar
    15    19    20    1
    16    19    21   ar
    17     4     5   ar
    18     5     6   ar
    19     6    22    1
    20    22    24    1
    21    24    25   ar
    22    25    26   ar
    23    26    27   ar
    24    27    28   ar
    25    28    30    1
    26    30    31   ar
    27    31    32   ar
    28    32    33   ar
    29    33    34    1
    30    33    35   ar
    31    28    29   ar
    32    29    36    1
    33    36    37    1
    34     6     1   ar
    35    29    24   ar
    36    21    14   ar
    37    35    30   ar
    38     8    11    1
    39    12    13    1
    40    22    23    1
@<TRIPOS>MOLECULE
*****
 37 40 0 0 0
SMALL
GASTEIGER

@<TRIPOS>ATOM
      1 C         142.2587  141.0930  167.1757 C.ar    1  UNL1        0.0859
      2 C         142.4731  139.6297  167.4262 C.ar    1  UNL1        0.1060
      3 N         142.6308  138.6861  166.2709 N.ar    1  UNL1       -0.2288
      4 C         142.5742  139.2058  164.8650 C.ar    1  UNL1        0.1345
      5 C         142.3598  140.6691  164.6144 C.ar    1  UNL1        0.0492
      6 C         142.2021  141.6127  165.7697 C.ar    1  UNL1        0.0571
      7 C         143.0139  143.0698  170.5330 C.3     1  UNL1        0.1109
      8 N         143.1716  142.1262  169.3777 N.am    1  UNL1       -0.2991
      9 C         142.1010  142.0366  168.3310 C.2     1  UNL1        0.2486
     10 O         140.8726  142.8905  168.4396 O.2     1  UNL1       -0.2700
     11 H         143.9778  141.5657  169.3064 H       1  UNL1        0.1498
     12 N         142.7319  138.2623  163.7097 N.pl3   1  UNL1       -0.2833
     13 H         143.4641  137.6042  163.7080 H       1  UNL1        0.1550
     14 C         141.7740  138.3213  162.5569 C.ar    1  UNL1        0.1357
     15 C         140.3006  138.1759  162.7978 C.ar    1  UNL1        0.0492
     16 C         139.3428  138.2350  161.6450 C.ar    1  UNL1        0.0635
     17 C         137.8693  138.0896  161.8859 C.3     1  UNL1        0.0522
     18 N         139.8582  138.4395  160.2513 N.ar    1  UNL1       -0.2349
     19 C         141.3316  138.5849  160.0103 C.ar    1  UNL1        0.1406
     20 C         141.8470  138.7895  158.6166 C.3     1  UNL1        0.0737
     21 N         142.2895  138.5259  161.1632 N.ar    1  UNL1       -0.2159
     22 N         141.9877  143.0760  165.5191 N.pl3   1  UNL1       -0.3099
     23 H         142.6229  143.7356  165.8805 H       1  UNL1        0.1523
     24 C         140.8055  143.5344  164.7177 C.ar    1  UNL1        0.0829
     25 C         139.4889  143.7764  165.3946 C.ar    1  UNL1        0.0177
     26 C         138.3066  144.2348  164.5931 C.ar    1  UNL1        0.0016
     27 C         138.4410  144.4511  163.1149 C.ar    1  UNL1        0.0062
     28 C         139.7575  144.2090  162.4381 C.ar    1  UNL1        0.0727
     29 C         140.9397  143.7507  163.2394 C.ar    1  UNL1        0.1549
     30 C         139.8918  144.4253  160.9599 C.ar    1  UNL1        0.1862
     31 N         140.6366  145.5459  160.2968 N.ar    1  UNL1       -0.2033
     32 C         140.5101  145.3722  158.8123 C.ar    1  UNL1        0.1972
     33 N         139.6870  144.1442  158.5579 N.ar    1  UNL1       -0.2281
     34 C         139.3119  143.5974  157.2124 C.3     1  UNL1        0.1556
     35 N         139.3049  143.5591  159.8852 N.ar    1  UNL1       -0.1483
     36 O         142.2563  143.5087  162.5626 O.3     1  UNL1       -0.4701
     37 C         143.3348  144.5493  162.6261 C.3     1  UNL1        0.2525
@<TRIPOS>BOND
     1     7     8    1
     2     8     9   am
     3     9    10    2
     4     9     1    1
     5     1     2   ar
     6     2     3   ar
     7     3     4   ar
     8     4    12    1
     9    12    14    1
    10    14    15   ar
    11    15    16   ar
    12    16    17    1
    13    16    18   ar
    14    18    19   ar
    15    19    20    1
    16    19    21   ar
    17     4     5   ar
    18     5     6   ar
    19     6    22    1
    20    22    24    1
    21    24    25   ar
    22    25    26   ar
    23    26    27   ar
    24    27    28   ar
    25    28    30    1
    26    30    31   ar
    27    31    32   ar
    28    32    33   ar
    29    33    34    1
    30    33    35   ar
    31    28    29   ar
    32    29    36    1
    33    36    37    1
    34     6     1   ar
    35    29    24   ar
    36    21    14   ar
    37    35    30   ar
    38     8    11    1
    39    12    13    1
    40    22    23    1
@<TRIPOS>MOLECULE
*****
 37 40 0 0 0
SMALL
GASTEIGER

@<TRIPOS>ATOM
      1 C         139.8599  140.2523  158.0873 C.ar    1  UNL1        0.0859
      2 C         140.2063  141.4950  157.3221 C.ar    1  UNL1        0.1060
      3 N         140.0927  142.8377  157.9810 N.ar    1  UNL1       -0.2288
      4 C         139.6327  142.9377  159.4052 C.ar    1  UNL1        0.1345
      5 C         139.2863  141.6950  160.1704 C.ar    1  UNL1        0.0492
      6 C         139.3999  140.3523  159.5115 C.ar    1  UNL1        0.0571
      7 C         139.1131  137.1716  155.6995 C.3     1  UNL1        0.1109
      8 N         138.9995  138.5143  156.3584 N.am    1  UNL1       -0.2991
      9 C         139.9736  138.9095  157.4284 C.2     1  UNL1        0.2486
     10 O         141.0612  137.9620  157.8395 O.2     1  UNL1       -0.2700
     11 H         138.2856  139.1363  156.0886 H       1  UNL1        0.1498
     12 N         139.5190  144.2804  160.0641 N.pl3   1  UNL1       -0.2833
     13 H         139.1110  145.0338  159.5792 H       1  UNL1        0.1550
     14 C         140.0272  144.4753  161.4619 C.ar    1  UNL1        0.1357
     15 C         139.0632  144.5266  162.6100 C.ar    1  UNL1        0.0492
     16 C         139.5713  144.7215  164.0078 C.ar    1  UNL1        0.0635
     17 C         138.6073  144.7728  165.1559 C.3     1  UNL1        0.0522
     18 N         141.0434  144.8652  164.2575 N.ar    1  UNL1       -0.2349
     19 C         142.0073  144.8139  163.1094 C.ar    1  UNL1        0.1406
     20 C         143.4794  144.9576  163.3591 C.3     1  UNL1        0.0737
     21 N         141.4992  144.6190  161.7116 N.ar    1  UNL1       -0.2159
     22 N         139.0535  139.1095  160.2769 N.pl3   1  UNL1       -0.3099
     23 H         138.3131  138.5355  159.9744 H       1  UNL1        0.1523
     24 C         139.8352  138.7415  161.5030 C.ar    1  UNL1        0.0829
     25 C         141.2003  138.1346  161.3680 C.ar    1  UNL1        0.0177
     26 C         141.9820  137.7665  162.5942 C.ar    1  UNL1        0.0016
     27 C         141.3986  138.0053  163.9553 C.ar    1  UNL1        0.0062
     28 C         140.0336  138.6122  164.0903 C.ar    1  UNL1        0.0727
     29 C         139.2518  138.9803  162.8642 C.ar    1  UNL1        0.1549
     30 C         139.4502  138.8510  165.4513 C.ar    1  UNL1        0.1862
     31 N         138.1560  138.2940  165.9661 N.ar    1  UNL1       -0.2033
     32 C         137.9645  138.7875  167.3695 C.ar    1  UNL1        0.1972
     33 N         139.1403  139.6496  167.7222 N.ar    1  UNL1       -0.2281
     34 C         139.3594  140.3496  169.0307 C.3     1  UNL1        0.1556
     35 N         140.0584  139.6889  166.5367 N.ar    1  UNL1       -0.1483
     36 O         137.8868  139.5872  162.9991 O.3     1  UNL1       -0.4701
     37 C         137.7425  141.0385  163.3498 C.3     1  UNL1        0.2525
@<TRIPOS>BOND
     1     7     8    1
     2     8     9   am
     3     9    10    2
     4     9     1    1
     5     1     2   ar
     6     2     3   ar
     7     3     4   ar
     8     4    12    1
     9    12    14    1
    10    14    15   ar
    11    15    16   ar
    12    16    17    1
    13    16    18   ar
    14    18    19   ar
    15    19    20    1
    16    19    21   ar
    17     4     5   ar
    18     5     6   ar
    19     6    22    1
    20    22    24    1
    21    24    25   ar
    22    25    26   ar
    23    26    27   ar
    24    27    28   ar
    25    28    30    1
    26    30    31   ar
    27    31    32   ar
    28    32    33   ar
    29    33    34    1
    30    33    35   ar
    31    28    29   ar
    32    29    36    1
    33    36    37    1
    34     6     1   ar
    35    29    24   ar
    36    21    14   ar
    37    35    30   ar
    38     8    11    1
    39    12    13    1
    40    22    23    1
@<TRIPOS>MOLECULE
*****
 37 40 0 0 0
SMALL
GASTEIGER

@<TRIPOS>ATOM
      1 C         138.8670  139.2690  164.7659 C.ar    1  UNL1        0.0859
      2 C         138.0939  138.5788  165.8503 C.ar    1  UNL1        0.1060
      3 N         138.4355  138.8276  167.2896 N.ar    1  UNL1       -0.2288
      4 C         139.5500  139.7666  167.6445 C.ar    1  UNL1        0.1345
      5 C         140.3230  140.4568  166.5601 C.ar    1  UNL1        0.0492
      6 C         139.9815  140.2081  165.1208 C.ar    1  UNL1        0.0571
      7 C         137.3500  139.7635  161.1322 C.3     1  UNL1        0.1109
      8 N         137.6916  140.0123  162.5714 N.am    1  UNL1       -0.2991
      9 C         138.5255  139.0203  163.3267 C.2     1  UNL1        0.2486
     10 O         139.0179  137.7795  162.6427 O.2     1  UNL1       -0.2700
     11 H         137.3684  140.8267  163.0204 H       1  UNL1        0.1498
     12 N         139.8915  140.0154  169.0837 N.pl3   1  UNL1       -0.2833
     13 H         139.6252  139.3643  169.7725 H       1  UNL1        0.1550
     14 C         140.6387  141.2562  169.4736 C.ar    1  UNL1        0.1357
     15 C         139.8916  142.5299  169.7375 C.ar    1  UNL1        0.0492
     16 C         140.6389  143.7707  170.1273 C.ar    1  UNL1        0.0635
     17 C         139.8918  145.0444  170.3912 C.3     1  UNL1        0.0522
     18 N         142.1332  143.7378  170.2534 N.ar    1  UNL1       -0.2349
     19 C         142.8803  142.4642  169.9895 C.ar    1  UNL1        0.1406
     20 C         144.3747  142.4314  170.1156 C.3     1  UNL1        0.0737
     21 N         142.1331  141.2233  169.5996 N.ar    1  UNL1       -0.2159
     22 N         140.7546  140.8984  164.0364 N.pl3   1  UNL1       -0.3099
     23 H         141.5282  140.4516  163.6226 H       1  UNL1        0.1523
     24 C         140.3491  142.2693  163.5826 C.ar    1  UNL1        0.0829
     25 C         139.6949  143.2152  164.5455 C.ar    1  UNL1        0.0177
     26 C         139.2894  144.5862  164.0916 C.ar    1  UNL1        0.0016
     27 C         139.5382  145.0113  162.6748 C.ar    1  UNL1        0.0062
     28 C         140.1924  144.0654  161.7119 C.ar    1  UNL1        0.0727
     29 C         140.5979  142.6945  162.1657 C.ar    1  UNL1        0.1549
     30 C         140.4412  144.4905  160.2951 C.ar    1  UNL1        0.1862
     31 N         141.6255  145.2685  159.8030 N.ar    1  UNL1       -0.2033
     32 C         141.4656  145.4711  158.3253 C.ar    1  UNL1        0.1972
     33 N         140.1824  144.8182  157.9042 N.ar    1  UNL1       -0.2281
     34 C         139.6294  144.7784  156.5104 C.3     1  UNL1        0.1556
     35 N         139.5493  144.2122  159.1216 N.ar    1  UNL1       -0.1483
     36 O         141.2521  141.7486  161.2027 O.3     1  UNL1       -0.4701
     37 C         142.7477  141.7021  161.0962 C.3     1  UNL1        0.2525
@<TRIPOS>BOND
     1     7     8    1
     2     8     9   am
     3     9    10    2
     4     9     1    1
     5     1     2   ar
     6     2     3   ar
     7     3     4   ar
     8     4    12    1
     9    12    14    1
    10    14    15   ar
    11    15    16   ar
    12    16    17    1
    13    16    18   ar
    14    18    19   ar
    15    19    20    1
    16    19    21   ar
    17     4     5   ar
    18     5     6   ar
    19     6    22    1
    20    22    24    1
    21    24    25   ar
    22    25    26   ar
    23    26    27   ar
    24    27    28   ar
    25    28    30    1
    26    30    31   ar
    27    31    32   ar
    28    32    33   ar
    29    33    34    1
    30    33    35   ar
    31    28    29   ar
    32    29    36    1
    33    36    37    1
    34     6     1   ar
    35    29    24   ar
    36    21    14   ar
    37    35    30   ar
    38     8    11    1
    39    12    13    1
    40    22    23    1
@<TRIPOS>MOLECULE
*****
 37 40 0 0 0
SMALL
GASTEIGER

@<TRIPOS>ATOM
      1 C         143.4962  143.2190  158.4083 C.ar    1  UNL1        0.0859
      2 C         142.6630  144.3553  157.8939 C.ar    1  UNL1        0.1060
      3 N         141.7678  145.1125  158.8295 N.ar    1  UNL1       -0.2288
      4 C         141.7059  144.7334  160.2795 C.ar    1  UNL1        0.1345
      5 C         142.5391  143.5972  160.7938 C.ar    1  UNL1        0.0492
      6 C         143.4343  142.8400  159.8583 C.ar    1  UNL1        0.0571
      7 C         146.7208  142.1133  156.3763 C.3     1  UNL1        0.1109
      8 N         145.8257  142.8705  157.3118 N.am    1  UNL1       -0.2991
      9 C         144.3914  142.4619  157.4727 C.2     1  UNL1        0.2486
     10 O         143.8524  141.2960  156.6980 O.2     1  UNL1       -0.2700
     11 H         146.1795  143.6357  157.8203 H       1  UNL1        0.1498
     12 N         140.8107  145.4906  161.2151 N.pl3   1  UNL1       -0.2833
     13 H         140.8308  146.4748  161.2269 H       1  UNL1        0.1550
     14 C         139.8849  144.7482  162.1325 C.ar    1  UNL1        0.1357
     15 C         139.2192  143.4873  161.6667 C.ar    1  UNL1        0.0492
     16 C         138.2934  142.7449  162.5842 C.ar    1  UNL1        0.0635
     17 C         137.6278  141.4839  162.1184 C.3     1  UNL1        0.0522
     18 N         138.0333  143.2635  163.9674 N.ar    1  UNL1       -0.2349
     19 C         138.6989  144.5244  164.4332 C.ar    1  UNL1        0.1406
     20 C         138.4387  145.0429  165.8165 C.3     1  UNL1        0.0737
     21 N         139.6247  145.2668  163.5158 N.ar    1  UNL1       -0.2159
     22 N         144.2676  141.7037  160.3727 N.pl3   1  UNL1       -0.3099
     23 H         144.8614  141.2121  159.7604 H       1  UNL1        0.1523
     24 C         144.1961  141.3165  161.8201 C.ar    1  UNL1        0.0829
     25 C         145.2785  141.7460  162.7657 C.ar    1  UNL1        0.0177
     26 C         145.2070  141.3588  164.2131 C.ar    1  UNL1        0.0016
     27 C         144.0532  140.5421  164.7149 C.ar    1  UNL1        0.0062
     28 C         142.9709  140.1126  163.7693 C.ar    1  UNL1        0.0727
     29 C         143.0423  140.4998  162.3219 C.ar    1  UNL1        0.1549
     30 C         141.8171  139.2960  164.2711 C.ar    1  UNL1        0.1862
     31 N         141.6650  137.8096  164.1379 N.ar    1  UNL1       -0.2033
     32 C         140.3667  137.4173  164.7787 C.ar    1  UNL1        0.1972
     33 N         139.7165  138.6612  165.3079 N.ar    1  UNL1       -0.2281
     34 C         138.4009  138.7316  166.0250 C.3     1  UNL1        0.1556
     35 N         140.6129  139.8222  164.9942 N.ar    1  UNL1       -0.1483
     36 O         141.9600  140.0703  161.3764 O.3     1  UNL1       -0.4701
     37 C         142.1082  138.7988  160.5945 C.3     1  UNL1        0.2525
@<TRIPOS>BOND
     1     7     8    1
     2     8     9   am
     3     9    10    2
     4     9     1    1
     5     1     2   ar
     6     2     3   ar
     7     3     4   ar
     8     4    12    1
     9    12    14    1
    10    14    15   ar
    11    15    16   ar
    12    16    17    1
    13    16    18   ar
    14    18    19   ar
    15    19    20    1
    16    19    21   ar
    17     4     5   ar
    18     5     6   ar
    19     6    22    1
    20    22    24    1
    21    24    25   ar
    22    25    26   ar
    23    26    27   ar
    24    27    28   ar
    25    28    30    1
    26    30    31   ar
    27    31    32   ar
    28    32    33   ar
    29    33    34    1
    30    33    35   ar
    31    28    29   ar
    32    29    36    1
    33    36    37    1
    34     6     1   ar
    35    29    24   ar
    36    21    14   ar
    37    35    30   ar
    38     8    11    1
    39    12    13    1
    40    22    23    1
@<TRIPOS>MOLECULE
*****
 37 40 0 0 0
SMALL
GASTEIGER

@<TRIPOS>ATOM
      1 C         141.0011  139.8624  167.3504 C.ar    1  UNL1        0.0859
      2 C         139.5575  139.7033  167.7253 C.ar    1  UNL1        0.1060
      3 N         138.4871  139.9247  166.6981 N.ar    1  UNL1       -0.2288
      4 C         138.8603  140.3053  165.2960 C.ar    1  UNL1        0.1345
      5 C         140.3039  140.4645  164.9212 C.ar    1  UNL1        0.0492
      6 C         141.3743  140.2431  165.9484 C.ar    1  UNL1        0.0571
      7 C         143.0467  140.0892  170.7437 C.3     1  UNL1        0.1109
      8 N         141.9763  140.3106  169.7165 N.am    1  UNL1       -0.2991
      9 C         142.0715  139.6410  168.3777 C.2     1  UNL1        0.2486
     10 O         143.2372  138.7500  168.0661 O.2     1  UNL1       -0.2700
     11 H         141.2112  140.8955  169.9210 H       1  UNL1        0.1498
     12 N         137.7899  140.5268  164.2688 N.pl3   1  UNL1       -0.2833
     13 H         136.9205  140.0736  164.3583 H       1  UNL1        0.1550
     14 C         138.0441  141.4387  163.1053 C.ar    1  UNL1        0.1357
     15 C         138.3222  142.8939  163.3397 C.ar    1  UNL1        0.0492
     16 C         138.5764  143.8058  162.1762 C.ar    1  UNL1        0.0635
     17 C         138.8546  145.2611  162.4106 C.3     1  UNL1        0.0522
     18 N         138.5525  143.2625  160.7783 N.ar    1  UNL1       -0.2349
     19 C         138.2744  141.8073  160.5438 C.ar    1  UNL1        0.1406
     20 C         138.2505  141.2640  159.1459 C.3     1  UNL1        0.0737
     21 N         138.0202  140.8954  161.7073 N.ar    1  UNL1       -0.2159
     22 N         142.8180  140.4023  165.5735 N.pl3   1  UNL1       -0.3099
     23 H         143.4645  139.6928  165.7923 H       1  UNL1        0.1523
     24 C         143.2766  141.6424  164.8653 C.ar    1  UNL1        0.0829
     25 C         143.7221  142.8365  165.6563 C.ar    1  UNL1        0.0177
     26 C         144.1807  144.0768  164.9480 C.ar    1  UNL1        0.0016
     27 C         144.1939  144.1228  163.4488 C.ar    1  UNL1        0.0062
     28 C         143.7484  142.9287  162.6578 C.ar    1  UNL1        0.0727
     29 C         143.2898  141.6886  163.3660 C.ar    1  UNL1        0.1549
     30 C         143.7615  142.9748  161.1586 C.ar    1  UNL1        0.1862
     31 N         144.7136  142.2399  160.2622 N.ar    1  UNL1       -0.2033
     32 C         144.3654  142.5748  158.8422 C.ar    1  UNL1        0.1972
     33 N         143.1981  143.5167  158.8609 N.ar    1  UNL1       -0.2281
     34 C         142.5226  144.1076  157.6590 C.3     1  UNL1        0.1556
     35 N         142.8249  143.7639  160.2926 N.ar    1  UNL1       -0.1483
     36 O         142.8443  140.4945  162.5750 O.3     1  UNL1       -0.4701
     37 C         143.8024  139.3713  162.3087 C.3     1  UNL1        0.2525
@<TRIPOS>BOND
     1     7     8    1
     2     8     9   am
     3     9    10    2
     4     9     1    1
     5     1     2   ar
     6     2     3   ar
     7     3     4   ar
     8     4    12    1
     9    12    14    1
    10    14    15   ar
    11    15    16   ar
    12    16    17    1
    13    16    18   ar
    14    18    19   ar
    15    19    20    1
    16    19    21   ar
    17     4     5   ar
    18     5     6   ar
    19     6    22    1
    20    22    24    1
    21    24    25   ar
    22    25    26   ar
    23    26    27   ar
    24    27    28   ar
    25    28    30    1
    26    30    31   ar
    27    31    32   ar
    28    32    33   ar
    29    33    34    1
    30    33    35   ar
    31    28    29   ar
    32    29    36    1
    33    36    37    1
    34     6     1   ar
    35    29    24   ar
    36    21    14   ar
    37    35    30   ar
    38     8    11    1
    39    12    13    1
    40    22    23    1
@<TRIPOS>MOLECULE
*****
 37 40 0 0 0
SMALL
GASTEIGER

@<TRIPOS>ATOM
      1 C         141.1024  138.4944  158.5943 C.ar    1  UNL1        0.0859
      2 C         139.9124  138.9808  157.8215 C.ar    1  UNL1        0.1060
      3 N         138.7324  139.5577  158.5459 N.ar    1  UNL1       -0.2288
      4 C         138.7423  139.6482  160.0431 C.ar    1  UNL1        0.1345
      5 C         139.9323  139.1619  160.8159 C.ar    1  UNL1        0.0492
      6 C         141.1124  138.5850  160.0915 C.ar    1  UNL1        0.0571
      7 C         143.3052  136.0902  156.3322 C.3     1  UNL1        0.1109
      8 N         142.1252  136.6671  157.0565 N.am    1  UNL1       -0.2991
      9 C         142.2824  137.9175  157.8700 C.2     1  UNL1        0.2486
     10 O         143.6197  138.5910  157.9590 O.2     1  UNL1       -0.2700
     11 H         141.2474  136.2251  156.9981 H       1  UNL1        0.1498
     12 N         137.5623  140.2251  160.7674 N.pl3   1  UNL1       -0.2833
     13 H         136.6804  140.2497  160.3305 H       1  UNL1        0.1550
     14 C         137.7259  140.7646  162.1574 C.ar    1  UNL1        0.1357
     15 C         137.7179  142.2460  162.3929 C.ar    1  UNL1        0.0492
     16 C         137.8815  142.7854  163.7829 C.ar    1  UNL1        0.0635
     17 C         137.8735  144.2669  164.0183 C.3     1  UNL1        0.0522
     18 N         138.0532  141.8435  164.9376 N.ar    1  UNL1       -0.2349
     19 C         138.0612  140.3621  164.7022 C.ar    1  UNL1        0.1406
     20 C         138.2329  139.4201  165.8569 C.3     1  UNL1        0.0737
     21 N         137.8976  139.8226  163.3121 N.ar    1  UNL1       -0.2159
     22 N         142.3024  138.0986  160.8644 N.pl3   1  UNL1       -0.3099
     23 H         142.6432  137.1862  160.7209 H       1  UNL1        0.1523
     24 C         142.9732  139.0024  161.8560 C.ar    1  UNL1        0.0829
     25 C         144.1803  139.7955  161.4511 C.ar    1  UNL1        0.0177
     26 C         144.8510  140.6993  162.4428 C.ar    1  UNL1        0.0016
     27 C         144.3147  140.8100  163.8392 C.ar    1  UNL1        0.0062
     28 C         143.1075  140.0170  164.2440 C.ar    1  UNL1        0.0727
     29 C         142.4368  139.1132  163.2525 C.ar    1  UNL1        0.1549
     30 C         142.5712  140.1277  165.6404 C.ar    1  UNL1        0.1862
     31 N         141.4824  141.0535  166.0959 N.ar    1  UNL1       -0.2033
     32 C         141.2677  140.8301  167.5635 C.ar    1  UNL1        0.1972
     33 N         142.2238  139.7661  168.0151 N.ar    1  UNL1       -0.2281
     34 C         142.3519  139.2303  169.4103 C.3     1  UNL1        0.1556
     35 N         143.0294  139.3321  166.8266 N.ar    1  UNL1       -0.1483
     36 O         141.2297  138.3201  163.6573 O.3     1  UNL1       -0.4701
     37 C         141.3958  136.9576  164.2624 C.3     1  UNL1        0.2525
@<TRIPOS>BOND
     1     7     8    1
     2     8     9   am
     3     9    10    2
     4     9     1    1
     5     1     2   ar
     6     2     3   ar
     7     3     4   ar
     8     4    12    1
     9    12    14    1
    10    14    15   ar
    11    15    16   ar
    12    16    17    1
    13    16    18   ar
    14    18    19   ar
    15    19    20    1
    16    19    21   ar
    17     4     5   ar
    18     5     6   ar
    19     6    22    1
    20    22    24    1
    21    24    25   ar
    22    25    26   ar
    23    26    27   ar
    24    27    28   ar
    25    28    30    1
    26    30    31   ar
    27    31    32   ar
    28    32    33   ar
    29    33    34    1
    30    33    35   ar
    31    28    29   ar
    32    29    36    1
    33    36    37    1
    34     6     1   ar
    35    29    24   ar
    36    21    14   ar
    37    35    30   ar
    38     8    11    1
    39    12    13    1
    40    22    23    1
@<TRIPOS>MOLECULE
*****
 37 40 0 0 0
SMALL
GASTEIGER

@<TRIPOS>ATOM
      1 C         138.9356  138.9297  160.8084 C.ar    1  UNL1        0.0859
      2 C         139.4407  138.5677  159.4432 C.ar    1  UNL1        0.1060
      3 N         139.0401  139.3885  158.2533 N.ar    1  UNL1       -0.2288
      4 C         138.1345  140.5713  158.4286 C.ar    1  UNL1        0.1345
      5 C         137.6295  140.9334  159.7938 C.ar    1  UNL1        0.0492
      6 C         138.0301  140.1126  160.9837 C.ar    1  UNL1        0.0571
      7 C         141.1863  137.1425  163.5452 C.3     1  UNL1        0.1109
      8 N         140.7857  137.9633  162.3553 N.am    1  UNL1       -0.2991
      9 C         139.3362  138.1089  161.9983 C.2     1  UNL1        0.2486
     10 O         138.2872  137.4338  162.8312 O.2     1  UNL1       -0.2700
     11 H         141.4743  138.4064  161.8087 H       1  UNL1        0.1498
     12 N         137.7340  141.3921  157.2387 N.pl3   1  UNL1       -0.2833
     13 H         138.2990  142.1434  156.9462 H       1  UNL1        0.1550
     14 C         136.4726  141.0683  156.4945 C.ar    1  UNL1        0.1357
     15 C         136.2713  141.5831  155.1000 C.ar    1  UNL1        0.0492
     16 C         135.0098  141.2593  154.3558 C.ar    1  UNL1        0.0635
     17 C         134.8085  141.7741  152.9613 C.3     1  UNL1        0.0522
     18 N         133.9497  140.4206  155.0060 N.ar    1  UNL1       -0.2349
     19 C         134.1509  139.9058  156.4004 C.ar    1  UNL1        0.1406
     20 C         133.0908  139.0672  157.0506 C.3     1  UNL1        0.0737
     21 N         135.4124  140.2297  157.1447 N.ar    1  UNL1       -0.2159
     22 N         137.5250  140.4747  162.3490 N.pl3   1  UNL1       -0.3099
     23 H         136.8313  139.9242  162.7792 H       1  UNL1        0.1523
     24 C         138.0768  141.6754  163.0587 C.ar    1  UNL1        0.0829
     25 C         137.5934  143.0485  162.6966 C.ar    1  UNL1        0.0177
     26 C         138.1453  144.2492  163.4064 C.ar    1  UNL1        0.0016
     27 C         139.1804  144.0769  164.4782 C.ar    1  UNL1        0.0062
     28 C         139.6638  142.7039  164.8403 C.ar    1  UNL1        0.0727
     29 C         139.1120  141.5031  164.1305 C.ar    1  UNL1        0.1549
     30 C         140.6989  142.5315  165.9120 C.ar    1  UNL1        0.1862
     31 N         142.1190  142.0953  165.7043 N.ar    1  UNL1       -0.2033
     32 C         142.7934  142.0593  167.0436 C.ar    1  UNL1        0.1972
     33 N         141.7902  142.4733  168.0791 N.ar    1  UNL1       -0.2281
     34 C         142.0379  142.5773  169.5549 C.3     1  UNL1        0.1556
     35 N         140.4957  142.7652  167.3797 N.ar    1  UNL1       -0.1483
     36 O         139.5953  140.1301  164.4926 O.3     1  UNL1       -0.4701
     37 C         138.9749  139.3961  165.6444 C.3     1  UNL1        0.2525
@<TRIPOS>BOND
     1     7     8    1
     2     8     9   am
     3     9    10    2
     4     9     1    1
     5     1     2   ar
     6     2     3   ar
     7     3     4   ar
     8     4    12    1
     9    12    14    1
    10    14    15   ar
    11    15    16   ar
    12    16    17    1
    13    16    18   ar
    14    18    19   ar
    15    19    20    1
    16    19    21   ar
    17     4     5   ar
    18     5     6   ar
    19     6    22    1
    20    22    24    1
    21    24    25   ar
    22    25    26   ar
    23    26    27   ar
    24    27    28   ar
    25    28    30    1
    26    30    31   ar
    27    31    32   ar
    28    32    33   ar
    29    33    34    1
    30    33    35   ar
    31    28    29   ar
    32    29    36    1
    33    36    37    1
    34     6     1   ar
    35    29    24   ar
    36    21    14   ar
    37    35    30   ar
    38     8    11    1
    39    12    13    1
    40    22    23    1
