@<TRIPOS>MOLECULE
*****
 29 33 0 0 0
SMALL
GASTEIGER

@<TRIPOS>ATOM
      1 N         141.9439  138.4338  163.4949 N.3     1  UNL1       -0.2695
      2 C         140.7492  138.2891  164.3904 C.3     1  UNL1        0.0939
      3 C         140.8230  138.7423  165.8184 C.3     1  UNL1        0.1095
      4 N         142.0914  139.3402  166.3509 N.pl3   1  UNL1       -0.2899
      5 C         143.2861  139.4850  165.4555 C.3     1  UNL1        0.1095
      6 C         143.2124  139.0318  164.0275 C.3     1  UNL1        0.0939
      7 C         142.1652  139.7935  167.7790 C.ar    1  UNL1        0.1400
      8 N         142.8586  139.0740  168.8977 N.ar    1  UNL1       -0.1943
      9 S         142.6805  139.8816  170.1490 S.2     1  UNL1        0.0144
     10 C         141.8769  141.1003  169.8038 C.ar    1  UNL1        0.0502
     11 C         141.3941  142.2525  170.6339 C.ar    1  UNL1        0.0080
     12 C         140.5927  143.3503  169.9993 C.ar    1  UNL1        0.0006
     13 C         140.2743  143.2958  168.5345 C.ar    1  UNL1        0.0001
     14 C         140.7571  142.1436  167.7042 C.ar    1  UNL1        0.0033
     15 C         141.5584  141.0458  168.3389 C.ar    1  UNL1        0.0396
     16 C         141.8702  137.9806  162.0670 C.3     1  UNL1        0.0769
     17 C         140.6330  138.2418  161.2601 C.3     1  UNL1        0.0445
     18 O         139.0625  145.9140  161.8030 O.2     1  UNL1       -0.2744
     19 C         139.0807  144.4151  161.7481 C.2     1  UNL1        0.2306
     20 C         140.2862  143.5563  161.5047 C.3     1  UNL1        0.1129
     21 C         139.8472  142.1223  161.5332 C.ar    1  UNL1        0.0002
     22 C         140.6014  140.8380  161.3552 C.ar    1  UNL1       -0.0059
     23 C         139.8787  139.5261  161.4381 C.ar    1  UNL1       -0.0104
     24 C         138.4019  139.4986  161.6991 C.ar    1  UNL1        0.0550
     25 CL        137.6792  138.1868  161.7820 Cl      1  UNL1       -0.0825
     26 C         137.6477  140.7830  161.8771 C.ar    1  UNL1        0.0254
     27 C         138.3703  142.0948  161.7941 C.ar    1  UNL1        0.0476
     28 N         137.8967  143.5118  161.9270 N.am    1  UNL1       -0.2839
     29 H         136.9711  143.7987  162.1010 H       1  UNL1        0.1549
@<TRIPOS>BOND
     1    18    19    2
     2    19    20    1
     3    20    21    1
     4    21    22   ar
     5    22    23   ar
     6    23    17    1
     7    17    16    1
     8    16     1    1
     9     1     2    1
    10     2     3    1
    11     3     4    1
    12     4     7    1
    13     7     8   ar
    14     8     9   ar
    15     9    10   ar
    16    10    11   ar
    17    11    12   ar
    18    12    13   ar
    19    13    14   ar
    20    14    15   ar
    21     4     5    1
    22     5     6    1
    23    23    24   ar
    24    24    25    1
    25    24    26   ar
    26    26    27   ar
    27    27    28    1
    28    28    19   am
    29    27    21   ar
    30     6     1    1
    31    15     7   ar
    32    15    10   ar
    33    28    29    1
@<TRIPOS>MOLECULE
*****
 29 33 0 0 0
SMALL
GASTEIGER

@<TRIPOS>ATOM
      1 N         143.0650  138.9973  163.5165 N.3     1  UNL1       -0.2695
      2 C         144.2372  139.1441  164.4408 C.3     1  UNL1        0.0939
      3 C         144.0133  139.4201  165.8982 C.3     1  UNL1        0.1095
      4 N         142.6172  139.5492  166.4312 N.pl3   1  UNL1       -0.2899
      5 C         141.4449  139.4023  165.5069 C.3     1  UNL1        0.1095
      6 C         141.6688  139.1264  164.0496 C.3     1  UNL1        0.0939
      7 C         142.3932  139.8251  167.8885 C.ar    1  UNL1        0.1400
      8 N         142.8509  138.9653  169.0292 N.ar    1  UNL1       -0.1943
      9 S         142.4128  139.6181  170.3066 S.2     1  UNL1        0.0144
     10 C         141.6844  140.8816  169.9554 C.ar    1  UNL1        0.0502
     11 C         141.0306  141.9319  170.8034 C.ar    1  UNL1        0.0080
     12 C         140.3646  143.1104  170.1569 C.ar    1  UNL1        0.0006
     13 C         140.3525  143.2383  168.6624 C.ar    1  UNL1        0.0001
     14 C         141.0064  142.1879  167.8144 C.ar    1  UNL1        0.0033
     15 C         141.6723  141.0095  168.4609 C.ar    1  UNL1        0.0396
     16 C         143.2889  138.7213  162.0593 C.3     1  UNL1        0.0769
     17 C         143.8245  139.8002  161.1653 C.3     1  UNL1        0.0445
     18 O         139.4136  146.2844  160.8156 O.2     1  UNL1       -0.2744
     19 C         140.4424  145.2130  161.0246 C.2     1  UNL1        0.2306
     20 C         140.3400  143.7899  160.5617 C.3     1  UNL1        0.1129
     21 C         141.5886  143.0740  160.9842 C.ar    1  UNL1        0.0002
     22 C         142.0425  141.6558  160.8032 C.ar    1  UNL1       -0.0059
     23 C         143.3706  141.2183  161.3463 C.ar    1  UNL1       -0.0104
     24 C         144.2447  142.1990  162.0703 C.ar    1  UNL1        0.0550
     25 CL        145.5727  141.7615  162.6134 Cl      1  UNL1       -0.0825
     26 C         143.7907  143.6172  162.2513 C.ar    1  UNL1        0.0254
     27 C         142.4627  144.0546  161.7083 C.ar    1  UNL1        0.0476
     28 N         141.7543  145.3766  161.7332 N.am    1  UNL1       -0.2839
     29 H         142.0913  146.2060  162.1428 H       1  UNL1        0.1549
@<TRIPOS>BOND
     1    18    19    2
     2    19    20    1
     3    20    21    1
     4    21    22   ar
     5    22    23   ar
     6    23    17    1
     7    17    16    1
     8    16     1    1
     9     1     2    1
    10     2     3    1
    11     3     4    1
    12     4     7    1
    13     7     8   ar
    14     8     9   ar
    15     9    10   ar
    16    10    11   ar
    17    11    12   ar
    18    12    13   ar
    19    13    14   ar
    20    14    15   ar
    21     4     5    1
    22     5     6    1
    23    23    24   ar
    24    24    25    1
    25    24    26   ar
    26    26    27   ar
    27    27    28    1
    28    28    19   am
    29    27    21   ar
    30     6     1    1
    31    15     7   ar
    32    15    10   ar
    33    28    29    1
@<TRIPOS>MOLECULE
*****
 29 33 0 0 0
SMALL
GASTEIGER

@<TRIPOS>ATOM
      1 N         140.1837  138.3540  163.6723 N.3     1  UNL1       -0.2695
      2 C         141.4349  138.3854  164.4991 C.3     1  UNL1        0.0939
      3 C         141.4026  138.9536  165.8870 C.3     1  UNL1        0.1095
      4 N         140.1192  139.4904  166.4480 N.pl3   1  UNL1       -0.2899
      5 C         138.8681  139.4590  165.6212 C.3     1  UNL1        0.1095
      6 C         138.9003  138.8908  164.2334 C.3     1  UNL1        0.0939
      7 C         140.0870  140.0586  167.8359 C.ar    1  UNL1        0.1400
      8 N         139.0102  139.8340  168.8557 N.ar    1  UNL1       -0.1943
      9 S         139.3836  140.5877  170.0977 S.2     1  UNL1        0.0144
     10 C         140.6912  141.2781  169.8455 C.ar    1  UNL1        0.0502
     11 C         141.5421  142.1623  170.7080 C.ar    1  UNL1        0.0080
     12 C         142.8279  142.7194  170.1727 C.ar    1  UNL1        0.0006
     13 C         143.2626  142.3924  168.7748 C.ar    1  UNL1        0.0001
     14 C         142.4116  141.5082  167.9122 C.ar    1  UNL1        0.0033
     15 C         141.1259  140.9510  168.4475 C.ar    1  UNL1        0.0396
     16 C         140.2159  137.7859  162.2845 C.3     1  UNL1        0.0769
     17 C         140.8000  138.5875  161.1592 C.3     1  UNL1        0.0445
     18 O         144.3141  145.4138  162.7952 O.2     1  UNL1       -0.2744
     19 C         143.9107  144.0043  162.4779 C.2     1  UNL1        0.2306
     20 C         142.5072  143.5108  162.2864 C.3     1  UNL1        0.1129
     21 C         142.5690  142.0424  161.9866 C.ar    1  UNL1        0.0002
     22 C         141.4988  141.0288  161.7088 C.ar    1  UNL1       -0.0059
     23 C         141.8702  139.6011  161.4370 C.ar    1  UNL1       -0.0104
     24 C         143.3119  139.1871  161.4432 C.ar    1  UNL1        0.0550
     25 CL        143.6834  137.7595  161.1715 Cl      1  UNL1       -0.0825
     26 C         144.3822  140.2007  161.7210 C.ar    1  UNL1        0.0254
     27 C         144.0107  141.6283  161.9927 C.ar    1  UNL1        0.0476
     28 N         144.8399  142.8409  162.2964 N.am    1  UNL1       -0.2839
     29 H         145.8216  142.8683  162.3645 H       1  UNL1        0.1549
@<TRIPOS>BOND
     1    18    19    2
     2    19    20    1
     3    20    21    1
     4    21    22   ar
     5    22    23   ar
     6    23    17    1
     7    17    16    1
     8    16     1    1
     9     1     2    1
    10     2     3    1
    11     3     4    1
    12     4     7    1
    13     7     8   ar
    14     8     9   ar
    15     9    10   ar
    16    10    11   ar
    17    11    12   ar
    18    12    13   ar
    19    13    14   ar
    20    14    15   ar
    21     4     5    1
    22     5     6    1
    23    23    24   ar
    24    24    25    1
    25    24    26   ar
    26    26    27   ar
    27    27    28    1
    28    28    19   am
    29    27    21   ar
    30     6     1    1
    31    15     7   ar
    32    15    10   ar
    33    28    29    1
@<TRIPOS>MOLECULE
*****
 29 33 0 0 0
SMALL
GASTEIGER

@<TRIPOS>ATOM
      1 N         139.9937  137.9089  163.2869 N.3     1  UNL1       -0.2695
      2 C         141.4890  137.8314  163.1973 C.3     1  UNL1        0.0939
      3 C         142.1743  138.0584  161.8824 C.3     1  UNL1        0.1095
      4 N         141.3643  138.3629  160.6571 N.pl3   1  UNL1       -0.2899
      5 C         139.8690  138.4403  160.7467 C.3     1  UNL1        0.1095
      6 C         139.1837  138.2134  162.0616 C.3     1  UNL1        0.0939
      7 C         142.0496  138.5899  159.3422 C.ar    1  UNL1        0.1400
      8 N         141.9766  137.6915  158.1433 N.ar    1  UNL1       -0.1943
      9 S         142.8101  138.3015  157.0556 S.2     1  UNL1        0.0144
     10 C         143.3983  139.5770  157.5823 C.ar    1  UNL1        0.0502
     11 C         144.3011  140.5990  156.9577 C.ar    1  UNL1        0.0080
     12 C         144.7339  141.7994  157.7463 C.ar    1  UNL1        0.0006
     13 C         144.2639  141.9776  159.1595 C.ar    1  UNL1        0.0001
     14 C         143.3610  140.9555  159.7842 C.ar    1  UNL1        0.0033
     15 C         142.9282  139.7552  158.9956 C.ar    1  UNL1        0.0396
     16 C         139.3083  137.6819  164.6017 C.3     1  UNL1        0.0769
     17 C         138.4625  138.7648  165.2034 C.3     1  UNL1        0.0445
     18 O         140.6454  142.0913  171.9704 O.2     1  UNL1       -0.2744
     19 C         140.3580  141.6823  170.5561 C.2     1  UNL1        0.2306
     20 C         139.6175  140.4502  170.1277 C.3     1  UNL1        0.1129
     21 C         139.5625  140.4401  168.6288 C.ar    1  UNL1        0.0002
     22 C         138.9603  139.4731  167.6530 C.ar    1  UNL1       -0.0059
     23 C         139.0647  139.7318  166.1791 C.ar    1  UNL1       -0.0104
     24 C         139.7712  140.9577  165.6811 C.ar    1  UNL1        0.0550
     25 CL        139.8756  141.2166  164.2073 Cl      1  UNL1       -0.0825
     26 C         140.3734  141.9248  166.6570 C.ar    1  UNL1        0.0254
     27 C         140.2690  141.6660  168.1307 C.ar    1  UNL1        0.0476
     28 N         140.7606  142.4337  169.3219 N.am    1  UNL1       -0.2839
     29 H         141.2599  143.2819  169.2979 H       1  UNL1        0.1549
@<TRIPOS>BOND
     1    18    19    2
     2    19    20    1
     3    20    21    1
     4    21    22   ar
     5    22    23   ar
     6    23    17    1
     7    17    16    1
     8    16     1    1
     9     1     2    1
    10     2     3    1
    11     3     4    1
    12     4     7    1
    13     7     8   ar
    14     8     9   ar
    15     9    10   ar
    16    10    11   ar
    17    11    12   ar
    18    12    13   ar
    19    13    14   ar
    20    14    15   ar
    21     4     5    1
    22     5     6    1
    23    23    24   ar
    24    24    25    1
    25    24    26   ar
    26    26    27   ar
    27    27    28    1
    28    28    19   am
    29    27    21   ar
    30     6     1    1
    31    15     7   ar
    32    15    10   ar
    33    28    29    1
@<TRIPOS>MOLECULE
*****
 29 33 0 0 0
SMALL
GASTEIGER

@<TRIPOS>ATOM
      1 N         143.2841  144.1318  162.1622 N.3     1  UNL1       -0.2695
      2 C         144.4989  143.2571  162.0666 C.3     1  UNL1        0.0939
      3 C         144.7480  142.4525  160.8254 C.3     1  UNL1        0.1095
      4 N         143.7823  142.5227  159.6798 N.pl3   1  UNL1       -0.2899
      5 C         142.5675  143.3974  159.7753 C.3     1  UNL1        0.1095
      6 C         142.3184  144.2020  161.0165 C.3     1  UNL1        0.0939
      7 C         144.0314  141.7181  158.4385 C.ar    1  UNL1        0.1400
      8 N         143.1337  140.6519  157.8839 N.ar    1  UNL1       -0.1943
      9 S         143.7694  140.1134  156.6366 S.2     1  UNL1        0.0144
     10 C         145.0600  140.8467  156.4202 C.ar    1  UNL1        0.0502
     11 C         146.1085  140.7396  155.3531 C.ar    1  UNL1        0.0080
     12 C         147.3191  141.6242  155.3995 C.ar    1  UNL1        0.0006
     13 C         147.4810  142.6159  156.5131 C.ar    1  UNL1        0.0001
     14 C         146.4324  142.7231  157.5804 C.ar    1  UNL1        0.0033
     15 C         145.2219  141.8386  157.5339 C.ar    1  UNL1        0.0396
     16 C         143.0350  144.9364  163.4034 C.3     1  UNL1        0.0769
     17 C         141.6408  145.3665  163.7512 C.3     1  UNL1        0.0445
     18 O         137.7176  138.9977  166.1325 O.2     1  UNL1       -0.2744
     19 C         138.2319  140.2666  165.5198 C.2     1  UNL1        0.2306
     20 C         139.5707  140.8915  165.7792 C.3     1  UNL1        0.1129
     21 C         139.6640  142.1446  164.9599 C.ar    1  UNL1        0.0002
     22 C         140.7499  143.1686  164.8123 C.ar    1  UNL1       -0.0059
     23 C         140.5548  144.3424  163.8989 C.ar    1  UNL1       -0.0104
     24 C         139.2736  144.4920  163.1332 C.ar    1  UNL1        0.0550
     25 CL        139.0784  145.6658  162.2198 Cl      1  UNL1       -0.0825
     26 C         138.1876  143.4679  163.2809 C.ar    1  UNL1        0.0254
     27 C         138.3828  142.2942  164.1943 C.ar    1  UNL1        0.0476
     28 N         137.4978  141.1336  164.5403 N.am    1  UNL1       -0.2839
     29 H         136.5938  140.9696  164.1866 H       1  UNL1        0.1549
@<TRIPOS>BOND
     1    18    19    2
     2    19    20    1
     3    20    21    1
     4    21    22   ar
     5    22    23   ar
     6    23    17    1
     7    17    16    1
     8    16     1    1
     9     1     2    1
    10     2     3    1
    11     3     4    1
    12     4     7    1
    13     7     8   ar
    14     8     9   ar
    15     9    10   ar
    16    10    11   ar
    17    11    12   ar
    18    12    13   ar
    19    13    14   ar
    20    14    15   ar
    21     4     5    1
    22     5     6    1
    23    23    24   ar
    24    24    25    1
    25    24    26   ar
    26    26    27   ar
    27    27    28    1
    28    28    19   am
    29    27    21   ar
    30     6     1    1
    31    15     7   ar
    32    15    10   ar
    33    28    29    1
@<TRIPOS>MOLECULE
*****
 29 33 0 0 0
SMALL
GASTEIGER

@<TRIPOS>ATOM
      1 N         138.5067  138.9222  163.3466 N.3     1  UNL1       -0.2695
      2 C         139.2279  137.9493  164.2316 C.3     1  UNL1        0.0939
      3 C         139.5976  138.3406  165.6318 C.3     1  UNL1        0.1095
      4 N         139.2460  139.7048  166.1468 N.pl3   1  UNL1       -0.2899
      5 C         138.5248  140.6777  165.2618 C.3     1  UNL1        0.1095
      6 C         138.1551  140.2865  163.8618 C.3     1  UNL1        0.0939
      7 C         139.6156  140.0961  167.5470 C.ar    1  UNL1        0.1400
      8 N         138.8450  139.7597  168.7891 N.ar    1  UNL1       -0.1943
      9 S         139.5739  140.3482  169.9605 S.2     1  UNL1        0.0144
     10 C         140.7952  141.0484  169.4424 C.ar    1  UNL1        0.0502
     11 C         141.8870  141.8076  170.1361 C.ar    1  UNL1        0.0080
     12 C         143.0047  142.4111  169.3382 C.ar    1  UNL1        0.0006
     13 C         143.0305  142.2553  167.8466 C.ar    1  UNL1        0.0001
     14 C         141.9386  141.4960  167.1527 C.ar    1  UNL1        0.0033
     15 C         140.8209  140.8925  167.9506 C.ar    1  UNL1        0.0396
     16 C         138.1370  138.5310  161.9465 C.3     1  UNL1        0.0769
     17 C         139.1294  138.6984  160.8342 C.3     1  UNL1        0.0445
     18 O         146.1106  141.7168  162.7770 O.2     1  UNL1       -0.2744
     19 C         144.7267  141.4001  162.2927 C.2     1  UNL1        0.2306
     20 C         144.0165  140.0882  162.4491 C.3     1  UNL1        0.1129
     21 C         142.6609  140.2170  161.8199 C.ar    1  UNL1        0.0002
     22 C         141.5263  139.2469  161.6731 C.ar    1  UNL1       -0.0059
     23 C         140.2640  139.6684  160.9810 C.ar    1  UNL1       -0.0104
     24 C         140.1363  141.0600  160.4358 C.ar    1  UNL1        0.0550
     25 CL        138.8741  141.4815  159.7438 Cl      1  UNL1       -0.0825
     26 C         141.2710  142.0301  160.5827 C.ar    1  UNL1        0.0254
     27 C         142.5333  141.6085  161.2747 C.ar    1  UNL1        0.0476
     28 N         143.8100  142.3397  161.5669 N.am    1  UNL1       -0.2839
     29 H         144.0110  143.2726  161.3248 H       1  UNL1        0.1549
@<TRIPOS>BOND
     1    18    19    2
     2    19    20    1
     3    20    21    1
     4    21    22   ar
     5    22    23   ar
     6    23    17    1
     7    17    16    1
     8    16     1    1
     9     1     2    1
    10     2     3    1
    11     3     4    1
    12     4     7    1
    13     7     8   ar
    14     8     9   ar
    15     9    10   ar
    16    10    11   ar
    17    11    12   ar
    18    12    13   ar
    19    13    14   ar
    20    14    15   ar
    21     4     5    1
    22     5     6    1
    23    23    24   ar
    24    24    25    1
    25    24    26   ar
    26    26    27   ar
    27    27    28    1
    28    28    19   am
    29    27    21   ar
    30     6     1    1
    31    15     7   ar
    32    15    10   ar
    33    28    29    1
@<TRIPOS>MOLECULE
*****
 29 33 0 0 0
SMALL
GASTEIGER

@<TRIPOS>ATOM
      1 N         139.6662  137.8765  163.8167 N.3     1  UNL1       -0.2695
      2 C         138.9408  137.8847  162.5037 C.3     1  UNL1        0.0939
      3 C         139.6889  138.1706  161.2354 C.3     1  UNL1        0.1095
      4 N         141.1623  138.4482  161.2799 N.pl3   1  UNL1       -0.2899
      5 C         141.8877  138.4400  162.5928 C.3     1  UNL1        0.1095
      6 C         141.1397  138.1542  163.8612 C.3     1  UNL1        0.0939
      7 C         141.9103  138.7342  160.0115 C.ar    1  UNL1        0.1400
      8 N         141.9631  137.8503  158.8007 N.ar    1  UNL1       -0.1943
      9 S         142.8223  138.5240  157.7722 S.2     1  UNL1        0.0144
     10 C         143.3006  139.8243  158.3474 C.ar    1  UNL1        0.0502
     11 C         144.1765  140.9067  157.7897 C.ar    1  UNL1        0.0080
     12 C         144.4888  142.1191  158.6160 C.ar    1  UNL1        0.0006
     13 C         143.9251  142.2489  160.0000 C.ar    1  UNL1        0.0001
     14 C         143.0492  141.1664  160.5577 C.ar    1  UNL1        0.0033
     15 C         142.7369  139.9541  159.7314 C.ar    1  UNL1        0.0396
     16 C         138.9182  137.5906  165.0850 C.3     1  UNL1        0.0769
     17 C         138.2798  138.7129  165.8484 C.3     1  UNL1        0.0445
     18 O         138.3347  145.6378  162.1518 O.2     1  UNL1       -0.2744
     19 C         138.5124  144.4397  163.0366 C.2     1  UNL1        0.2306
     20 C         137.8340  143.1123  162.8701 C.3     1  UNL1        0.1129
     21 C         138.3020  142.2108  163.9739 C.ar    1  UNL1        0.0002
     22 C         137.9720  140.7881  164.3158 C.ar    1  UNL1       -0.0059
     23 C         138.6097  140.1356  165.5065 C.ar    1  UNL1       -0.0104
     24 C         139.5774  140.9059  166.3552 C.ar    1  UNL1        0.0550
     25 CL        140.2151  140.2534  167.5458 Cl      1  UNL1       -0.0825
     26 C         139.9074  142.3287  166.0132 C.ar    1  UNL1        0.0254
     27 C         139.2697  142.9811  164.8226 C.ar    1  UNL1        0.0476
     28 N         139.3997  144.3586  164.2433 N.am    1  UNL1       -0.2839
     29 H         139.9677  145.0824  164.5936 H       1  UNL1        0.1549
@<TRIPOS>BOND
     1    18    19    2
     2    19    20    1
     3    20    21    1
     4    21    22   ar
     5    22    23   ar
     6    23    17    1
     7    17    16    1
     8    16     1    1
     9     1     2    1
    10     2     3    1
    11     3     4    1
    12     4     7    1
    13     7     8   ar
    14     8     9   ar
    15     9    10   ar
    16    10    11   ar
    17    11    12   ar
    18    12    13   ar
    19    13    14   ar
    20    14    15   ar
    21     4     5    1
    22     5     6    1
    23    23    24   ar
    24    24    25    1
    25    24    26   ar
    26    26    27   ar
    27    27    28    1
    28    28    19   am
    29    27    21   ar
    30     6     1    1
    31    15     7   ar
    32    15    10   ar
    33    28    29    1
@<TRIPOS>MOLECULE
*****
 29 33 0 0 0
SMALL
GASTEIGER

@<TRIPOS>ATOM
      1 N         140.3851  137.9626  162.8076 N.3     1  UNL1       -0.2695
      2 C         141.8617  137.8283  162.5807 C.3     1  UNL1        0.0939
      3 C         142.4327  138.0440  161.2105 C.3     1  UNL1        0.1095
      4 N         141.5270  138.3939  160.0671 N.pl3   1  UNL1       -0.2899
      5 C         140.0503  138.5282  160.2940 C.3     1  UNL1        0.1095
      6 C         139.4794  138.3126  161.6642 C.3     1  UNL1        0.0939
      7 C         142.0980  138.6096  158.6969 C.ar    1  UNL1        0.1400
      8 N         142.2020  139.9241  157.9819 N.ar    1  UNL1       -0.1943
      9 S         142.8334  139.6754  156.6442 S.2     1  UNL1        0.0144
     10 C         143.1197  138.2072  156.5324 C.ar    1  UNL1        0.0502
     11 C         143.7355  137.3851  155.4394 C.ar    1  UNL1        0.0080
     12 C         143.8968  135.9041  155.6149 C.ar    1  UNL1        0.0006
     13 C         143.4422  135.2454  156.8836 C.ar    1  UNL1        0.0001
     14 C         142.8264  136.0675  157.9767 C.ar    1  UNL1        0.0033
     15 C         142.6651  137.5484  157.8011 C.ar    1  UNL1        0.0396
     16 C         139.8141  137.7470  164.1778 C.3     1  UNL1        0.0769
     17 C         138.8747  138.7575  164.7664 C.3     1  UNL1        0.0445
     18 O         140.3770  142.0728  171.7217 O.2     1  UNL1       -0.2744
     19 C         140.2255  141.6694  170.2849 C.2     1  UNL1        0.2306
     20 C         139.5507  140.4267  169.7845 C.3     1  UNL1        0.1129
     21 C         139.6304  140.4271  168.2866 C.ar    1  UNL1        0.0002
     22 C         139.1371  139.4563  167.2550 C.ar    1  UNL1       -0.0059
     23 C         139.3680  139.7283  165.7980 C.ar    1  UNL1       -0.0104
     24 C         140.0920  140.9713  165.3727 C.ar    1  UNL1        0.0550
     25 CL        140.3228  141.2434  163.9157 Cl      1  UNL1       -0.0825
     26 C         140.5852  141.9421  166.4043 C.ar    1  UNL1        0.0254
     27 C         140.3544  141.6700  167.8612 C.ar    1  UNL1        0.0476
     28 N         140.7222  142.4378  169.0963 N.am    1  UNL1       -0.2839
     29 H         141.2048  143.2954  169.1222 H       1  UNL1        0.1549
@<TRIPOS>BOND
     1    18    19    2
     2    19    20    1
     3    20    21    1
     4    21    22   ar
     5    22    23   ar
     6    23    17    1
     7    17    16    1
     8    16     1    1
     9     1     2    1
    10     2     3    1
    11     3     4    1
    12     4     7    1
    13     7     8   ar
    14     8     9   ar
    15     9    10   ar
    16    10    11   ar
    17    11    12   ar
    18    12    13   ar
    19    13    14   ar
    20    14    15   ar
    21     4     5    1
    22     5     6    1
    23    23    24   ar
    24    24    25    1
    25    24    26   ar
    26    26    27   ar
    27    27    28    1
    28    28    19   am
    29    27    21   ar
    30     6     1    1
    31    15     7   ar
    32    15    10   ar
    33    28    29    1
@<TRIPOS>MOLECULE
*****
 29 33 0 0 0
SMALL
GASTEIGER

@<TRIPOS>ATOM
      1 N         142.3148  137.9852  156.9236 N.3     1  UNL1       -0.2695
      2 C         142.9173  138.3258  158.2544 C.3     1  UNL1        0.0939
      3 C         142.0318  138.5375  159.4465 C.3     1  UNL1        0.1095
      4 N         140.5438  138.4085  159.3078 N.pl3   1  UNL1       -0.2899
      5 C         139.9413  138.0679  157.9771 C.3     1  UNL1        0.1095
      6 C         140.8267  137.8563  156.7850 C.3     1  UNL1        0.0939
      7 C         139.6583  138.6202  160.5000 C.ar    1  UNL1        0.1400
      8 N         138.3247  139.3069  160.4969 N.ar    1  UNL1       -0.1943
      9 S         137.7932  139.2934  161.8995 S.2     1  UNL1        0.0144
     10 C         138.7983  138.5985  162.7695 C.ar    1  UNL1        0.0502
     11 C         138.8128  138.2907  164.2374 C.ar    1  UNL1        0.0080
     12 C         139.9800  137.5669  164.8406 C.ar    1  UNL1        0.0006
     13 C         141.1327  137.1509  163.9756 C.ar    1  UNL1        0.0001
     14 C         141.1183  137.4586  162.5075 C.ar    1  UNL1        0.0033
     15 C         139.9511  138.1824  161.9045 C.ar    1  UNL1        0.0396
     16 C         143.2002  137.7735  155.7315 C.3     1  UNL1        0.0769
     17 C         142.8505  136.7288  154.7135 C.3     1  UNL1        0.0445
     18 O         145.0588  130.1794  158.4353 O.2     1  UNL1       -0.2744
     19 C         144.5296  131.2499  157.5275 C.2     1  UNL1        0.2306
     20 C         144.6312  132.7289  157.7556 C.3     1  UNL1        0.1129
     21 C         143.9703  133.4224  156.6013 C.ar    1  UNL1        0.0002
     22 C         143.7670  134.8747  156.2859 C.ar    1  UNL1       -0.0059
     23 C         143.0537  135.2765  155.0289 C.ar    1  UNL1       -0.0104
     24 C         142.5437  134.2260  154.0875 C.ar    1  UNL1        0.0550
     25 CL        141.8304  134.6278  152.8306 Cl      1  UNL1       -0.0825
     26 C         142.7470  132.7737  154.4030 C.ar    1  UNL1        0.0254
     27 C         143.4603  132.3719  155.6599 C.ar    1  UNL1        0.0476
     28 N         143.8060  131.0292  156.2323 N.am    1  UNL1       -0.2839
     29 H         143.5949  130.1564  155.8288 H       1  UNL1        0.1549
@<TRIPOS>BOND
     1    18    19    2
     2    19    20    1
     3    20    21    1
     4    21    22   ar
     5    22    23   ar
     6    23    17    1
     7    17    16    1
     8    16     1    1
     9     1     2    1
    10     2     3    1
    11     3     4    1
    12     4     7    1
    13     7     8   ar
    14     8     9   ar
    15     9    10   ar
    16    10    11   ar
    17    11    12   ar
    18    12    13   ar
    19    13    14   ar
    20    14    15   ar
    21     4     5    1
    22     5     6    1
    23    23    24   ar
    24    24    25    1
    25    24    26   ar
    26    26    27   ar
    27    27    28    1
    28    28    19   am
    29    27    21   ar
    30     6     1    1
    31    15     7   ar
    32    15    10   ar
    33    28    29    1
