@<TRIPOS>MOLECULE
*****
 29 32 0 0 0
SMALL
GASTEIGER

@<TRIPOS>ATOM
      1 C         139.2521  138.4892  163.0955 C.3     1  UNL1        0.0559
      2 C         139.4292  139.5243  164.1665 C.3     1  UNL1        0.2097
      3 N         139.6039  139.2558  165.6319 N.pl3   1  UNL1       -0.2183
      4 C         139.7454  140.5752  166.3313 C.2     1  UNL1        0.3161
      5 N         139.6581  141.6592  165.2981 N.2     1  UNL1       -0.0615
      6 C         139.4626  141.0097  163.9602 C.3     1  UNL1        0.2514
      7 H         139.6225  138.3693  166.0596 H       1  UNL1        0.2923
      8 C         139.2656  140.6552  162.5161 C.ar    1  UNL1        0.0297
      9 C         140.4509  140.5369  161.6045 C.ar    1  UNL1        0.0025
     10 C         140.2539  140.1824  160.1603 C.ar    1  UNL1        0.0295
     11 C         138.8717  139.9462  159.6278 C.ar    1  UNL1        0.1401
     12 F         138.6747  139.5918  158.1837 F       1  UNL1       -0.2042
     13 C         137.6863  140.0646  160.5395 C.ar    1  UNL1        0.0295
     14 C         137.8833  140.4191  161.9836 C.ar    1  UNL1        0.0025
     15 C         139.4549  142.4210  163.4520 C.ar    1  UNL1        0.0488
     16 C         140.7419  143.1822  163.3325 C.ar    1  UNL1        0.0057
     17 C         140.7341  144.5934  162.8243 C.ar    1  UNL1        0.0495
     18 C         139.4394  145.2435  162.4356 C.ar    1  UNL1        0.2223
     19 F         139.4317  146.6548  161.9274 F       1  UNL1       -0.1832
     20 N         138.1525  144.4823  162.5551 N.ar    1  UNL1       -0.2166
     21 C         138.1602  143.0710  163.0633 C.ar    1  UNL1        0.1014
     22 C         139.9400  140.7755  167.8051 C.ar    1  UNL1        0.0823
     23 C         139.0701  140.0426  168.7829 C.ar    1  UNL1        0.0074
     24 C         139.2647  140.2429  170.2566 C.ar    1  UNL1        0.0009
     25 C         140.3292  141.1761  170.7526 C.ar    1  UNL1        0.0103
     26 C         141.1991  141.9090  169.7748 C.ar    1  UNL1        0.0687
     27 C         141.0045  141.7087  168.3011 C.ar    1  UNL1        0.0176
     28 C         142.2637  142.8422  170.2707 C.1     1  UNL1        0.1004
     29 N         143.3282  143.7753  170.7667 N.1     1  UNL1       -0.1908
@<TRIPOS>BOND
     1     2     1    1
     2     2     3    1
     3     3     4    1
     4     4    22    1
     5    22    23   ar
     6    23    24   ar
     7    24    25   ar
     8    25    26   ar
     9    26    28    1
    10    28    29    3
    11    26    27   ar
    12     4     5    2
    13     5     6    1
    14     6     8    1
    15     8     9   ar
    16     9    10   ar
    17    10    11   ar
    18    11    12    1
    19    11    13   ar
    20    13    14   ar
    21     6    15    1
    22    15    16   ar
    23    16    17   ar
    24    17    18   ar
    25    18    19    1
    26    18    20   ar
    27    20    21   ar
    28     6     2    1
    29    14     8   ar
    30    21    15   ar
    31    27    22   ar
    32     3     7    1
@<TRIPOS>MOLECULE
*****
 29 32 0 0 0
SMALL
GASTEIGER

@<TRIPOS>ATOM
      1 C         142.4985  144.6872  163.3403 C.3     1  UNL1        0.0559
      2 C         141.8822  143.5360  164.0785 C.3     1  UNL1        0.2097
      3 N         142.2018  143.1164  165.4827 N.pl3   1  UNL1       -0.2183
      4 C         141.3553  141.9233  165.8141 C.2     1  UNL1        0.3161
      5 N         140.5124  141.6055  164.6147 N.2     1  UNL1       -0.0615
      6 C         140.8380  142.6021  163.5420 C.3     1  UNL1        0.2514
      7 H         142.8530  143.5483  166.0816 H       1  UNL1        0.2923
      8 C         140.9503  143.4403  162.3031 C.ar    1  UNL1        0.0297
      9 C         141.9194  143.0575  161.2240 C.ar    1  UNL1        0.0025
     10 C         142.0317  143.8957  159.9850 C.ar    1  UNL1        0.0295
     11 C         141.1750  145.1164  159.8252 C.ar    1  UNL1        0.1401
     12 F         141.2873  145.9545  158.5863 F       1  UNL1       -0.2042
     13 C         140.2058  145.4992  160.9043 C.ar    1  UNL1        0.0295
     14 C         140.0935  144.6611  162.1432 C.ar    1  UNL1        0.0025
     15 C         139.8174  141.8436  162.7465 C.ar    1  UNL1        0.0488
     16 C         140.2482  140.7205  161.8504 C.ar    1  UNL1        0.0057
     17 C         139.2276  139.9619  161.0549 C.ar    1  UNL1        0.0495
     18 C         137.7760  140.3264  161.1556 C.ar    1  UNL1        0.2223
     19 F         136.7554  139.5678  160.3600 F       1  UNL1       -0.1832
     20 N         137.3452  141.4494  162.0517 N.ar    1  UNL1       -0.2166
     21 C         138.3658  142.2081  162.8472 C.ar    1  UNL1        0.1014
     22 C         141.3521  141.1787  167.1163 C.ar    1  UNL1        0.0823
     23 C         142.6378  140.6535  167.6830 C.ar    1  UNL1        0.0074
     24 C         142.6346  139.9090  168.9852 C.ar    1  UNL1        0.0009
     25 C         141.3458  139.6897  169.7205 C.ar    1  UNL1        0.0103
     26 C         140.0601  140.2148  169.1538 C.ar    1  UNL1        0.0687
     27 C         140.0633  140.9593  167.8517 C.ar    1  UNL1        0.0176
     28 C         138.7713  139.9955  169.8892 C.1     1  UNL1        0.1004
     29 N         137.4825  139.7761  170.6246 N.1     1  UNL1       -0.1908
@<TRIPOS>BOND
     1     2     1    1
     2     2     3    1
     3     3     4    1
     4     4    22    1
     5    22    23   ar
     6    23    24   ar
     7    24    25   ar
     8    25    26   ar
     9    26    28    1
    10    28    29    3
    11    26    27   ar
    12     4     5    2
    13     5     6    1
    14     6     8    1
    15     8     9   ar
    16     9    10   ar
    17    10    11   ar
    18    11    12    1
    19    11    13   ar
    20    13    14   ar
    21     6    15    1
    22    15    16   ar
    23    16    17   ar
    24    17    18   ar
    25    18    19    1
    26    18    20   ar
    27    20    21   ar
    28     6     2    1
    29    14     8   ar
    30    21    15   ar
    31    27    22   ar
    32     3     7    1
@<TRIPOS>MOLECULE
*****
 29 32 0 0 0
SMALL
GASTEIGER

@<TRIPOS>ATOM
      1 C         144.4965  139.9422  162.9671 C.3     1  UNL1        0.0559
      2 C         143.6251  140.4707  164.0678 C.3     1  UNL1        0.2097
      3 N         143.5477  139.9334  165.4661 N.pl3   1  UNL1       -0.2183
      4 C         142.5529  140.7599  166.2258 C.2     1  UNL1        0.3161
      5 N         142.0155  141.8080  165.2971 N.2     1  UNL1       -0.0615
      6 C         142.6781  141.6293  163.9633 C.3     1  UNL1        0.2514
      7 H         144.0599  139.1719  165.8226 H       1  UNL1        0.2923
      8 C         143.1641  141.6957  162.5458 C.ar    1  UNL1        0.0297
      9 C         142.4601  140.9169  161.4744 C.ar    1  UNL1        0.0025
     10 C         142.9460  140.9833  160.0568 C.ar    1  UNL1        0.0295
     11 C         144.1359  141.8284  159.7107 C.ar    1  UNL1        0.1401
     12 F         144.6219  141.8947  158.2931 F       1  UNL1       -0.2042
     13 C         144.8400  142.6072  160.7821 C.ar    1  UNL1        0.0295
     14 C         144.3541  142.5408  162.1996 C.ar    1  UNL1        0.0025
     15 C         141.8328  142.8018  163.5625 C.ar    1  UNL1        0.0488
     16 C         142.3633  144.1964  163.7163 C.ar    1  UNL1        0.0057
     17 C         141.5180  145.3689  163.3155 C.ar    1  UNL1        0.0495
     18 C         140.1421  145.1468  162.7610 C.ar    1  UNL1        0.2223
     19 F         139.2968  146.3194  162.3602 F       1  UNL1       -0.1832
     20 N         139.6116  143.7523  162.6072 N.ar    1  UNL1       -0.2166
     21 C         140.4569  142.5797  163.0080 C.ar    1  UNL1        0.1014
     22 C         142.1638  140.5713  167.6622 C.ar    1  UNL1        0.0823
     23 C         142.6365  139.3630  168.4149 C.ar    1  UNL1        0.0074
     24 C         142.2474  139.1745  169.8512 C.ar    1  UNL1        0.0009
     25 C         141.3856  140.1943  170.5348 C.ar    1  UNL1        0.0103
     26 C         140.9130  141.4026  169.7822 C.ar    1  UNL1        0.0687
     27 C         141.3021  141.5911  168.3459 C.ar    1  UNL1        0.0176
     28 C         140.0512  142.4224  170.4659 C.1     1  UNL1        0.1004
     29 N         139.1895  143.4422  171.1495 N.1     1  UNL1       -0.1908
@<TRIPOS>BOND
     1     2     1    1
     2     2     3    1
     3     3     4    1
     4     4    22    1
     5    22    23   ar
     6    23    24   ar
     7    24    25   ar
     8    25    26   ar
     9    26    28    1
    10    28    29    3
    11    26    27   ar
    12     4     5    2
    13     5     6    1
    14     6     8    1
    15     8     9   ar
    16     9    10   ar
    17    10    11   ar
    18    11    12    1
    19    11    13   ar
    20    13    14   ar
    21     6    15    1
    22    15    16   ar
    23    16    17   ar
    24    17    18   ar
    25    18    19    1
    26    18    20   ar
    27    20    21   ar
    28     6     2    1
    29    14     8   ar
    30    21    15   ar
    31    27    22   ar
    32     3     7    1
@<TRIPOS>MOLECULE
*****
 29 32 0 0 0
SMALL
GASTEIGER

@<TRIPOS>ATOM
      1 C         140.9299  137.3292  163.2695 C.3     1  UNL1        0.0559
      2 C         141.1104  138.4737  164.2222 C.3     1  UNL1        0.2097
      3 N         140.5474  138.5632  165.6096 N.pl3   1  UNL1       -0.2183
      4 C         140.9746  139.8744  166.1996 C.2     1  UNL1        0.3161
      5 N         141.8017  140.5954  165.1768 N.2     1  UNL1       -0.0615
      6 C         141.8857  139.7297  163.9547 C.3     1  UNL1        0.2514
      7 H         139.9945  137.8810  166.0548 H       1  UNL1        0.2923
      8 C         142.1429  139.0990  162.6182 C.ar    1  UNL1        0.0297
      9 C         141.1645  139.2909  161.4976 C.ar    1  UNL1        0.0025
     10 C         141.4217  138.6601  160.1611 C.ar    1  UNL1        0.0295
     11 C         142.6572  137.8376  159.9453 C.ar    1  UNL1        0.1401
     12 F         142.9145  137.2068  158.6089 F       1  UNL1       -0.2042
     13 C         143.6358  137.6456  161.0661 C.ar    1  UNL1        0.0295
     14 C         143.3785  138.2763  162.4025 C.ar    1  UNL1        0.0025
     15 C         142.7147  140.8538  163.4077 C.ar    1  UNL1        0.0488
     16 C         144.2027  140.8492  163.5969 C.ar    1  UNL1        0.0057
     17 C         145.0317  141.9733  163.0499 C.ar    1  UNL1        0.0495
     18 C         144.3727  143.1020  162.3139 C.ar    1  UNL1        0.2223
     19 F         145.2018  144.2261  161.7670 F       1  UNL1       -0.1832
     20 N         142.8847  143.1066  162.1248 N.ar    1  UNL1       -0.2166
     21 C         142.0556  141.9825  162.6717 C.ar    1  UNL1        0.1014
     22 C         140.6344  140.3766  167.5715 C.ar    1  UNL1        0.0823
     23 C         139.3845  139.9057  168.2540 C.ar    1  UNL1        0.0074
     24 C         139.0444  140.4078  169.6259 C.ar    1  UNL1        0.0009
     25 C         139.9542  141.3809  170.3153 C.ar    1  UNL1        0.0103
     26 C         141.2042  141.8518  169.6328 C.ar    1  UNL1        0.0687
     27 C         141.5443  141.3497  168.2609 C.ar    1  UNL1        0.0176
     28 C         142.1140  142.8249  170.3222 C.1     1  UNL1        0.1004
     29 N         143.0238  143.7980  171.0117 N.1     1  UNL1       -0.1908
@<TRIPOS>BOND
     1     2     1    1
     2     2     3    1
     3     3     4    1
     4     4    22    1
     5    22    23   ar
     6    23    24   ar
     7    24    25   ar
     8    25    26   ar
     9    26    28    1
    10    28    29    3
    11    26    27   ar
    12     4     5    2
    13     5     6    1
    14     6     8    1
    15     8     9   ar
    16     9    10   ar
    17    10    11   ar
    18    11    12    1
    19    11    13   ar
    20    13    14   ar
    21     6    15    1
    22    15    16   ar
    23    16    17   ar
    24    17    18   ar
    25    18    19    1
    26    18    20   ar
    27    20    21   ar
    28     6     2    1
    29    14     8   ar
    30    21    15   ar
    31    27    22   ar
    32     3     7    1
@<TRIPOS>MOLECULE
*****
 29 32 0 0 0
SMALL
GASTEIGER

@<TRIPOS>ATOM
      1 C         144.7202  141.2398  162.8946 C.3     1  UNL1        0.0559
      2 C         143.6935  140.9983  163.9612 C.3     1  UNL1        0.2097
      3 N         143.8159  141.3823  165.4060 N.pl3   1  UNL1       -0.2183
      4 C         142.5622  140.9518  166.1079 C.2     1  UNL1        0.3161
      5 N         141.6648  140.3017  165.0969 N.2     1  UNL1       -0.0615
      6 C         142.3640  140.3304  163.7701 C.3     1  UNL1        0.2514
      7 H         144.5843  141.8371  165.8208 H       1  UNL1        0.2923
      8 C         142.8046  140.2145  162.3410 C.ar    1  UNL1        0.0297
      9 C         142.4165  141.2702  161.3486 C.ar    1  UNL1        0.0025
     10 C         142.8570  141.1543  159.9194 C.ar    1  UNL1        0.0295
     11 C         143.6856  139.9828  159.4826 C.ar    1  UNL1        0.1401
     12 F         144.1261  139.8669  158.0535 F       1  UNL1       -0.2042
     13 C         144.0737  138.9270  160.4751 C.ar    1  UNL1        0.0295
     14 C         143.6332  139.0429  161.9042 C.ar    1  UNL1        0.0025
     15 C         141.1267  139.6383  163.2803 C.ar    1  UNL1        0.0488
     16 C         139.8860  140.4321  162.9960 C.ar    1  UNL1        0.0057
     17 C         138.6487  139.7399  162.5062 C.ar    1  UNL1        0.0495
     18 C         138.6520  138.2541  162.3007 C.ar    1  UNL1        0.2223
     19 F         137.4145  137.5620  161.8108 F       1  UNL1       -0.1832
     20 N         139.8925  137.4604  162.5849 N.ar    1  UNL1       -0.2166
     21 C         141.1300  138.1525  163.0748 C.ar    1  UNL1        0.1014
     22 C         142.2590  141.1386  167.5651 C.ar    1  UNL1        0.0823
     23 C         142.6577  140.0847  168.5552 C.ar    1  UNL1        0.0074
     24 C         142.3545  140.2715  170.0123 C.ar    1  UNL1        0.0009
     25 C         141.6526  141.5122  170.4792 C.ar    1  UNL1        0.0103
     26 C         141.2538  142.5660  169.4891 C.ar    1  UNL1        0.0687
     27 C         141.5570  142.3792  168.0320 C.ar    1  UNL1        0.0176
     28 C         140.5519  143.8067  169.9561 C.1     1  UNL1        0.1004
     29 N         139.8500  145.0474  170.4230 N.1     1  UNL1       -0.1908
@<TRIPOS>BOND
     1     2     1    1
     2     2     3    1
     3     3     4    1
     4     4    22    1
     5    22    23   ar
     6    23    24   ar
     7    24    25   ar
     8    25    26   ar
     9    26    28    1
    10    28    29    3
    11    26    27   ar
    12     4     5    2
    13     5     6    1
    14     6     8    1
    15     8     9   ar
    16     9    10   ar
    17    10    11   ar
    18    11    12    1
    19    11    13   ar
    20    13    14   ar
    21     6    15    1
    22    15    16   ar
    23    16    17   ar
    24    17    18   ar
    25    18    19    1
    26    18    20   ar
    27    20    21   ar
    28     6     2    1
    29    14     8   ar
    30    21    15   ar
    31    27    22   ar
    32     3     7    1
@<TRIPOS>MOLECULE
*****
 29 32 0 0 0
SMALL
GASTEIGER

@<TRIPOS>ATOM
      1 C         142.6365  144.8248  162.9879 C.3     1  UNL1        0.0559
      2 C         142.1253  143.6456  163.7613 C.3     1  UNL1        0.2097
      3 N         142.5877  143.2161  165.1221 N.pl3   1  UNL1       -0.2183
      4 C         141.8101  141.9939  165.5115 C.2     1  UNL1        0.3161
      5 N         140.8673  141.6679  164.3913 N.2     1  UNL1       -0.0615
      6 C         141.0621  142.6887  163.3096 C.3     1  UNL1        0.2514
      7 H         143.2799  143.6587  165.6644 H       1  UNL1        0.2923
      8 C         141.0333  143.5470  162.0798 C.ar    1  UNL1        0.0297
      9 C         140.1526  144.7603  162.0324 C.ar    1  UNL1        0.0025
     10 C         140.1238  145.6186  160.8025 C.ar    1  UNL1        0.0295
     11 C         140.9758  145.2637  159.6202 C.ar    1  UNL1        0.1401
     12 F         140.9471  146.1220  158.3903 F       1  UNL1       -0.2042
     13 C         141.8566  144.0503  159.6675 C.ar    1  UNL1        0.0295
     14 C         141.8853  143.1920  160.8974 C.ar    1  UNL1        0.0025
     15 C         139.9928  141.9113  162.6009 C.ar    1  UNL1        0.0488
     16 C         140.3654  140.7615  161.7126 C.ar    1  UNL1        0.0057
     17 C         139.2962  139.9841  161.0039 C.ar    1  UNL1        0.0495
     18 C         137.8543  140.3566  161.1833 C.ar    1  UNL1        0.2223
     19 F         136.7851  139.5791  160.4745 F       1  UNL1       -0.1832
     20 N         137.4817  141.5064  162.0715 N.ar    1  UNL1       -0.2166
     21 C         138.5509  142.2838  162.7803 C.ar    1  UNL1        0.1014
     22 C         141.9508  141.2314  166.7956 C.ar    1  UNL1        0.0823
     23 C         142.6298  139.8940  166.8032 C.ar    1  UNL1        0.0074
     24 C         142.7705  139.1316  168.0873 C.ar    1  UNL1        0.0009
     25 C         142.2321  139.7067  169.3638 C.ar    1  UNL1        0.0103
     26 C         141.5532  141.0441  169.3562 C.ar    1  UNL1        0.0687
     27 C         141.4125  141.8065  168.0721 C.ar    1  UNL1        0.0176
     28 C         141.0148  141.6192  170.6327 C.1     1  UNL1        0.1004
     29 N         140.4765  142.1943  171.9092 N.1     1  UNL1       -0.1908
@<TRIPOS>BOND
     1     2     1    1
     2     2     3    1
     3     3     4    1
     4     4    22    1
     5    22    23   ar
     6    23    24   ar
     7    24    25   ar
     8    25    26   ar
     9    26    28    1
    10    28    29    3
    11    26    27   ar
    12     4     5    2
    13     5     6    1
    14     6     8    1
    15     8     9   ar
    16     9    10   ar
    17    10    11   ar
    18    11    12    1
    19    11    13   ar
    20    13    14   ar
    21     6    15    1
    22    15    16   ar
    23    16    17   ar
    24    17    18   ar
    25    18    19    1
    26    18    20   ar
    27    20    21   ar
    28     6     2    1
    29    14     8   ar
    30    21    15   ar
    31    27    22   ar
    32     3     7    1
@<TRIPOS>MOLECULE
*****
 29 32 0 0 0
SMALL
GASTEIGER

@<TRIPOS>ATOM
      1 C         143.3985  139.7651  162.0804 C.3     1  UNL1        0.0559
      2 C         142.2870  140.2222  162.9779 C.3     1  UNL1        0.2097
      3 N         141.7102  139.4528  164.1291 N.pl3   1  UNL1       -0.2183
      4 C         140.6238  140.2842  164.7445 C.2     1  UNL1        0.3161
      5 N         140.5292  141.5674  163.9736 N.2     1  UNL1       -0.0615
      6 C         141.5570  141.5292  162.8818 C.3     1  UNL1        0.2514
      7 H         141.9948  138.5591  164.4283 H       1  UNL1        0.2923
      8 C         142.4723  141.7748  161.7191 C.ar    1  UNL1        0.0297
      9 C         143.8059  142.4252  161.9389 C.ar    1  UNL1        0.0025
     10 C         144.7213  142.6710  160.7761 C.ar    1  UNL1        0.0295
     11 C         144.3030  142.2663  159.3938 C.ar    1  UNL1        0.1401
     12 F         145.2182  142.5120  158.2311 F       1  UNL1       -0.2042
     13 C         142.9692  141.6158  159.1739 C.ar    1  UNL1        0.0295
     14 C         142.0539  141.3701  160.3366 C.ar    1  UNL1        0.0025
     15 C         141.0184  142.8874  162.5426 C.ar    1  UNL1        0.0488
     16 C         141.6195  144.1105  163.1693 C.ar    1  UNL1        0.0057
     17 C         141.0809  145.4688  162.8301 C.ar    1  UNL1        0.0495
     18 C         139.9413  145.6039  161.8642 C.ar    1  UNL1        0.2223
     19 F         139.4027  146.9623  161.5250 F       1  UNL1       -0.1832
     20 N         139.3403  144.3809  161.2375 N.ar    1  UNL1       -0.2166
     21 C         139.8788  143.0225  161.5767 C.ar    1  UNL1        0.1014
     22 C         139.7802  139.8997  165.9238 C.ar    1  UNL1        0.0823
     23 C         138.5621  139.0466  165.7282 C.ar    1  UNL1        0.0074
     24 C         137.7186  138.6622  166.9075 C.ar    1  UNL1        0.0009
     25 C         138.0932  139.1309  168.2822 C.ar    1  UNL1        0.0103
     26 C         139.3113  139.9840  168.4778 C.ar    1  UNL1        0.0687
     27 C         140.1548  140.3684  167.2985 C.ar    1  UNL1        0.0176
     28 C         139.6859  140.4527  169.8525 C.1     1  UNL1        0.1004
     29 N         140.0605  140.9214  171.2273 N.1     1  UNL1       -0.1908
@<TRIPOS>BOND
     1     2     1    1
     2     2     3    1
     3     3     4    1
     4     4    22    1
     5    22    23   ar
     6    23    24   ar
     7    24    25   ar
     8    25    26   ar
     9    26    28    1
    10    28    29    3
    11    26    27   ar
    12     4     5    2
    13     5     6    1
    14     6     8    1
    15     8     9   ar
    16     9    10   ar
    17    10    11   ar
    18    11    12    1
    19    11    13   ar
    20    13    14   ar
    21     6    15    1
    22    15    16   ar
    23    16    17   ar
    24    17    18   ar
    25    18    19    1
    26    18    20   ar
    27    20    21   ar
    28     6     2    1
    29    14     8   ar
    30    21    15   ar
    31    27    22   ar
    32     3     7    1
@<TRIPOS>MOLECULE
*****
 29 32 0 0 0
SMALL
GASTEIGER

@<TRIPOS>ATOM
      1 C         140.9104  137.6270  164.7418 C.3     1  UNL1        0.0559
      2 C         140.7548  138.2272  163.3760 C.3     1  UNL1        0.2097
      3 N         141.2569  137.6376  162.0914 N.pl3   1  UNL1       -0.2183
      4 C         140.8822  138.5685  160.9764 C.2     1  UNL1        0.3161
      5 N         140.1486  139.7334  161.5720 N.2     1  UNL1       -0.0615
      6 C         140.0698  139.5225  163.0550 C.3     1  UNL1        0.2514
      7 H         141.7464  136.7887  161.9966 H       1  UNL1        0.2923
      8 C         139.8377  139.5851  164.5356 C.ar    1  UNL1        0.0297
      9 C         138.5844  139.0076  165.1233 C.ar    1  UNL1        0.0025
     10 C         138.3522  139.0701  166.6040 C.ar    1  UNL1        0.0295
     11 C         139.3734  139.7102  167.4968 C.ar    1  UNL1        0.1401
     12 F         139.1414  139.7728  168.9774 F       1  UNL1       -0.2042
     13 C         140.6269  140.2879  166.9090 C.ar    1  UNL1        0.0295
     14 C         140.8590  140.2253  165.4284 C.ar    1  UNL1        0.0025
     15 C         139.3363  140.8309  163.0435 C.ar    1  UNL1        0.0488
     16 C         140.0920  142.1159  163.2103 C.ar    1  UNL1        0.0057
     17 C         139.3584  143.4242  163.1988 C.ar    1  UNL1        0.0495
     18 C         137.8693  143.4476  163.0206 C.ar    1  UNL1        0.2223
     19 F         137.1358  144.7561  163.0091 F       1  UNL1       -0.1832
     20 N         137.1136  142.1627  162.8538 N.ar    1  UNL1       -0.2166
     21 C         137.8471  140.8543  162.8653 C.ar    1  UNL1        0.1014
     22 C         141.1876  138.3694  159.5213 C.ar    1  UNL1        0.0823
     23 C         142.5995  138.4857  159.0286 C.ar    1  UNL1        0.0074
     24 C         142.9049  138.2866  157.5736 C.ar    1  UNL1        0.0009
     25 C         141.7983  137.9711  156.6114 C.ar    1  UNL1        0.0103
     26 C         140.3863  137.8548  157.1041 C.ar    1  UNL1        0.0687
     27 C         140.0810  138.0540  158.5591 C.ar    1  UNL1        0.0176
     28 C         139.2797  137.5394  156.1419 C.1     1  UNL1        0.1004
     29 N         138.1731  137.2240  155.1796 N.1     1  UNL1       -0.1908
@<TRIPOS>BOND
     1     2     1    1
     2     2     3    1
     3     3     4    1
     4     4    22    1
     5    22    23   ar
     6    23    24   ar
     7    24    25   ar
     8    25    26   ar
     9    26    28    1
    10    28    29    3
    11    26    27   ar
    12     4     5    2
    13     5     6    1
    14     6     8    1
    15     8     9   ar
    16     9    10   ar
    17    10    11   ar
    18    11    12    1
    19    11    13   ar
    20    13    14   ar
    21     6    15    1
    22    15    16   ar
    23    16    17   ar
    24    17    18   ar
    25    18    19    1
    26    18    20   ar
    27    20    21   ar
    28     6     2    1
    29    14     8   ar
    30    21    15   ar
    31    27    22   ar
    32     3     7    1
@<TRIPOS>MOLECULE
*****
 29 32 0 0 0
SMALL
GASTEIGER

@<TRIPOS>ATOM
      1 C         144.6586  141.4059  162.9515 C.3     1  UNL1        0.0559
      2 C         143.5815  141.2012  163.9752 C.3     1  UNL1        0.2097
      3 N         143.6494  141.6027  165.4188 N.pl3   1  UNL1       -0.2183
      4 C         142.3572  141.2087  166.0708 C.2     1  UNL1        0.3161
      5 N         141.4907  140.5637  165.0301 N.2     1  UNL1       -0.0615
      6 C         142.2473  140.5590  163.7349 C.3     1  UNL1        0.2514
      7 H         144.4087  142.0469  165.8608 H       1  UNL1        0.2923
      8 C         142.7469  140.4138  162.3281 C.ar    1  UNL1        0.0297
      9 C         142.4920  141.5002  161.3258 C.ar    1  UNL1        0.0025
     10 C         142.9916  141.3550  159.9188 C.ar    1  UNL1        0.0295
     11 C         143.7461  140.1234  159.5143 C.ar    1  UNL1        0.1401
     12 F         144.2457  139.9781  158.1074 F       1  UNL1       -0.2042
     13 C         144.0010  139.0368  160.5166 C.ar    1  UNL1        0.0295
     14 C         143.5015  139.1821  161.9235 C.ar    1  UNL1        0.0025
     15 C         141.0176  139.8865  163.2005 C.ar    1  UNL1        0.0488
     16 C         140.9142  138.3901  163.2166 C.ar    1  UNL1        0.0057
     17 C         139.6845  137.7176  162.6822 C.ar    1  UNL1        0.0495
     18 C         138.5583  138.5414  162.1317 C.ar    1  UNL1        0.2223
     19 F         137.3286  137.8688  161.5973 F       1  UNL1       -0.1832
     20 N         138.6617  140.0377  162.1157 N.ar    1  UNL1       -0.2166
     21 C         139.8915  140.7103  162.6501 C.ar    1  UNL1        0.1014
     22 C         141.9951  141.4223  167.5107 C.ar    1  UNL1        0.0823
     23 C         142.8904  142.2372  168.3963 C.ar    1  UNL1        0.0074
     24 C         142.5283  142.4508  169.8362 C.ar    1  UNL1        0.0009
     25 C         141.2709  141.8494  170.3905 C.ar    1  UNL1        0.0103
     26 C         140.3756  141.0344  169.5049 C.ar    1  UNL1        0.0687
     27 C         140.7377  140.8209  168.0650 C.ar    1  UNL1        0.0176
     28 C         139.1182  140.4331  170.0592 C.1     1  UNL1        0.1004
     29 N         137.8608  139.8317  170.6135 N.1     1  UNL1       -0.1908
@<TRIPOS>BOND
     1     2     1    1
     2     2     3    1
     3     3     4    1
     4     4    22    1
     5    22    23   ar
     6    23    24   ar
     7    24    25   ar
     8    25    26   ar
     9    26    28    1
    10    28    29    3
    11    26    27   ar
    12     4     5    2
    13     5     6    1
    14     6     8    1
    15     8     9   ar
    16     9    10   ar
    17    10    11   ar
    18    11    12    1
    19    11    13   ar
    20    13    14   ar
    21     6    15    1
    22    15    16   ar
    23    16    17   ar
    24    17    18   ar
    25    18    19    1
    26    18    20   ar
    27    20    21   ar
    28     6     2    1
    29    14     8   ar
    30    21    15   ar
    31    27    22   ar
    32     3     7    1
