@<TRIPOS>MOLECULE
*****
 43 47 0 0 0
SMALL
GASTEIGER

@<TRIPOS>ATOM
      1 C         142.6101  141.7478  159.7135 C.ar    1  UNL1        0.0375
      2 C         143.5503  142.7203  159.0650 C.ar    1  UNL1        0.1031
      3 N         143.0748  143.5819  157.9330 N.ar    1  UNL1       -0.2121
      4 C         141.6592  143.4711  157.4493 C.ar    1  UNL1        0.2200
      5 N         140.7191  142.4986  158.0978 N.ar    1  UNL1       -0.2163
      6 C         141.1946  141.6370  159.2299 C.ar    1  UNL1        0.0836
      7 C         143.6268  139.5150  160.5684 C.ar    1  UNL1        0.1387
      8 C         144.1023  138.6534  161.7005 C.ar    1  UNL1        0.0369
      9 C         144.0365  139.1631  163.1097 C.ar    1  UNL1        0.0031
     10 C         143.4953  140.5343  163.3869 C.ar    1  UNL1       -0.0001
     11 C         143.0199  141.3958  162.2548 C.ar    1  UNL1        0.0031
     12 C         143.0856  140.8862  160.8456 C.ar    1  UNL1        0.0367
     13 C         143.4296  141.0439  164.7961 C.ar    1  UNL1       -0.0039
     14 C         143.8868  142.4372  165.1119 C.ar    1  UNL1       -0.0003
     15 C         143.8211  142.9468  166.5211 C.ar    1  UNL1        0.0011
     16 C         143.2981  142.0632  167.6146 C.ar    1  UNL1        0.0137
     17 C         142.8408  140.6700  167.2988 C.ar    1  UNL1       -0.0031
     18 C         142.9066  140.1603  165.8896 C.ar    1  UNL1       -0.0218
     19 C         142.4493  138.7670  165.5738 C.3     1  UNL1        0.0310
     20 C         143.2323  142.5729  169.0238 C.2     1  UNL1        0.0729
     21 O         144.4729  142.6111  169.8662 O.co2   1  UNL1       -0.5446
     22 O         141.9261  143.0443  169.5907 O.co2   1  UNL1       -0.5446
     23 C         142.6254  138.0860  158.6436 C.3     1  UNL1        0.2525
     24 O         143.6926  139.0054  159.1592 O.3     1  UNL1       -0.4714
     25 N         141.1838  144.3327  156.3173 N.pl3   1  UNL1       -0.2747
     26 C         142.1686  144.8826  155.3285 C.3     1  UNL1        0.1151
     27 C         139.7236  144.6444  156.1741 C.3     1  UNL1        0.1151
     28 C         140.2545  140.6645  159.8784 C.3     1  UNL1        0.1428
     29 N         139.6737  140.9688  161.2275 N.am    1  UNL1       -0.2380
     30 C         138.9082  142.2039  161.5996 C.2     1  UNL1        0.4055
     31 O         138.5891  143.3516  160.6881 O.2     1  UNL1       -0.2262
     32 O         138.5178  142.0899  163.0435 O.3     1  UNL1       -0.4320
     33 C         139.0421  140.7842  163.5637 C.3     1  UNL1        0.2109
     34 C         139.7564  140.0914  162.4413 C.3     1  UNL1        0.1233
     35 C         140.4345  138.7556  162.5190 C.3     1  UNL1        0.0258
     36 C         138.8804  140.2629  164.9608 C.ar    1  UNL1        0.0235
     37 C         138.1514  138.9741  165.2009 C.ar    1  UNL1        0.0290
     38 C         137.9897  138.4529  166.5980 C.ar    1  UNL1        0.1422
     39 F         137.2608  137.1641  166.8380 F       1  UNL1       -0.2041
     40 C         138.5570  139.2204  167.7552 C.ar    1  UNL1        0.0592
     41 C         139.2859  140.5093  167.5152 C.ar    1  UNL1        0.1422
     42 F         139.8532  141.2768  168.6724 F       1  UNL1       -0.2041
     43 C         139.4476  141.0305  166.1180 C.ar    1  UNL1        0.0290
@<TRIPOS>UNITY_ATOM_ATTR
21 1
charge -1
@<TRIPOS>BOND
     1    23    24    1
     2    24     7    1
     3     7     8   ar
     4     8     9   ar
     5     9    10   ar
     6    10    13    1
     7    13    14   ar
     8    14    15   ar
     9    15    16   ar
    10    16    20    1
    11    20    21   ar
    12    20    22   ar
    13    16    17   ar
    14    17    18   ar
    15    18    19    1
    16    10    11   ar
    17    11    12   ar
    18    12     1    1
    19     1     2   ar
    20     2     3   ar
    21     3     4   ar
    22     4    25    1
    23    25    26    1
    24    25    27    1
    25     4     5   ar
    26     5     6   ar
    27     6    28    1
    28    28    29    1
    29    29    30   am
    30    30    31    2
    31    30    32    1
    32    32    33    1
    33    33    36    1
    34    36    37   ar
    35    37    38   ar
    36    38    39    1
    37    38    40   ar
    38    40    41   ar
    39    41    42    1
    40    41    43   ar
    41    33    34    1
    42    34    35    1
    43    12     7   ar
    44     6     1   ar
    45    34    29    1
    46    18    13   ar
    47    43    36   ar
@<TRIPOS>MOLECULE
*****
 43 47 0 0 0
SMALL
GASTEIGER

@<TRIPOS>ATOM
      1 C         139.4866  141.2481  158.1057 C.ar    1  UNL1        0.0375
      2 C         138.2132  140.9465  157.3726 C.ar    1  UNL1        0.1031
      3 N         137.6368  141.9554  156.4240 N.ar    1  UNL1       -0.2121
      4 C         138.3339  143.2660  156.2084 C.ar    1  UNL1        0.2200
      5 N         139.6073  143.5677  156.9416 N.ar    1  UNL1       -0.2163
      6 C         140.1837  142.5586  157.8902 C.ar    1  UNL1        0.0836
      7 C         141.1737  139.3365  158.6055 C.ar    1  UNL1        0.1387
      8 C         141.7499  138.3276  159.5541 C.ar    1  UNL1        0.0369
      9 C         141.2154  138.2212  160.9516 C.ar    1  UNL1        0.0031
     10 C         140.1046  139.1238  161.4004 C.ar    1  UNL1       -0.0001
     11 C         139.5283  140.1327  160.4518 C.ar    1  UNL1        0.0031
     12 C         140.0629  140.2391  159.0543 C.ar    1  UNL1        0.0367
     13 C         139.5700  139.0174  162.7979 C.ar    1  UNL1       -0.0039
     14 C         139.7748  137.7572  163.5853 C.ar    1  UNL1       -0.0003
     15 C         139.2403  137.6508  164.9828 C.ar    1  UNL1        0.0011
     16 C         138.5009  138.8046  165.5929 C.ar    1  UNL1        0.0137
     17 C         138.2961  140.0647  164.8054 C.ar    1  UNL1       -0.0031
     18 C         138.8307  140.1711  163.4080 C.ar    1  UNL1       -0.0218
     19 C         138.6258  141.4313  162.6205 C.3     1  UNL1        0.0310
     20 C         137.9664  138.6982  166.9903 C.2     1  UNL1        0.0729
     21 O         138.6375  139.4394  168.1085 O.co2   1  UNL1       -0.5446
     22 O         136.7608  137.8506  167.2697 O.co2   1  UNL1       -0.5446
     23 C         141.1870  138.5343  156.1344 C.3     1  UNL1        0.2525
     24 O         141.7082  139.4429  157.2080 O.3     1  UNL1       -0.4714
     25 N         137.7576  144.2750  155.2598 N.pl3   1  UNL1       -0.2747
     26 C         138.2165  145.7021  155.3129 C.3     1  UNL1        0.1151
     27 C         136.7224  143.8568  154.2582 C.3     1  UNL1        0.1151
     28 C         141.4571  142.8603  158.6233 C.3     1  UNL1        0.1428
     29 N         141.4125  143.2781  160.0633 N.am    1  UNL1       -0.2380
     30 C         140.6197  144.4206  160.6256 C.2     1  UNL1        0.4055
     31 O         139.7322  145.3457  159.8469 O.2     1  UNL1       -0.2262
     32 O         140.8701  144.4754  162.1036 O.3     1  UNL1       -0.4320
     33 C         141.8178  143.3669  162.4546 C.3     1  UNL1        0.2109
     34 C         142.1529  142.6269  161.1936 C.3     1  UNL1        0.1233
     35 C         143.0679  141.4435  161.0825 C.3     1  UNL1        0.0258
     36 C         142.3387  143.0533  163.8258 C.ar    1  UNL1        0.0235
     37 C         141.5987  142.0915  164.7075 C.ar    1  UNL1        0.0290
     38 C         142.1197  141.7779  166.0787 C.ar    1  UNL1        0.1422
     39 F         141.3797  140.8161  166.9603 F       1  UNL1       -0.2041
     40 C         143.3806  142.4263  166.5683 C.ar    1  UNL1        0.0592
     41 C         144.1206  143.3882  165.6867 C.ar    1  UNL1        0.1422
     42 F         145.3815  144.0365  166.1763 F       1  UNL1       -0.2041
     43 C         143.5996  143.7016  164.3154 C.ar    1  UNL1        0.0290
@<TRIPOS>UNITY_ATOM_ATTR
21 1
charge -1
@<TRIPOS>BOND
     1    23    24    1
     2    24     7    1
     3     7     8   ar
     4     8     9   ar
     5     9    10   ar
     6    10    13    1
     7    13    14   ar
     8    14    15   ar
     9    15    16   ar
    10    16    20    1
    11    20    21   ar
    12    20    22   ar
    13    16    17   ar
    14    17    18   ar
    15    18    19    1
    16    10    11   ar
    17    11    12   ar
    18    12     1    1
    19     1     2   ar
    20     2     3   ar
    21     3     4   ar
    22     4    25    1
    23    25    26    1
    24    25    27    1
    25     4     5   ar
    26     5     6   ar
    27     6    28    1
    28    28    29    1
    29    29    30   am
    30    30    31    2
    31    30    32    1
    32    32    33    1
    33    33    36    1
    34    36    37   ar
    35    37    38   ar
    36    38    39    1
    37    38    40   ar
    38    40    41   ar
    39    41    42    1
    40    41    43   ar
    41    33    34    1
    42    34    35    1
    43    12     7   ar
    44     6     1   ar
    45    34    29    1
    46    18    13   ar
    47    43    36   ar
@<TRIPOS>MOLECULE
*****
 43 47 0 0 0
SMALL
GASTEIGER

@<TRIPOS>ATOM
      1 C         141.0173  138.9996  158.2971 C.ar    1  UNL1        0.0375
      2 C         140.1158  138.1257  157.4763 C.ar    1  UNL1        0.1031
      3 N         140.7031  137.1429  156.5072 N.ar    1  UNL1       -0.2121
      4 C         142.1918  137.0340  156.3588 C.ar    1  UNL1        0.2200
      5 N         143.0932  137.9079  157.1796 N.ar    1  UNL1       -0.2163
      6 C         142.5059  138.8907  158.1488 C.ar    1  UNL1        0.0836
      7 C         140.2189  141.4087  158.8528 C.ar    1  UNL1        0.1387
      8 C         139.6316  142.3915  159.8220 C.ar    1  UNL1        0.0369
      9 C         139.2555  141.9479  161.2046 C.ar    1  UNL1        0.0031
     10 C         139.4666  140.5216  161.6181 C.ar    1  UNL1       -0.0001
     11 C         140.0539  139.5388  160.6490 C.ar    1  UNL1        0.0031
     12 C         140.4300  139.9824  159.2663 C.ar    1  UNL1        0.0367
     13 C         139.0905  140.0780  163.0008 C.ar    1  UNL1       -0.0039
     14 C         138.4577  141.0484  163.9536 C.ar    1  UNL1       -0.0003
     15 C         138.0816  140.6048  165.3363 C.ar    1  UNL1        0.0011
     16 C         138.3382  139.1909  165.7661 C.ar    1  UNL1        0.0137
     17 C         138.9709  138.2205  164.8133 C.ar    1  UNL1       -0.0031
     18 C         139.3470  138.6640  163.4306 C.ar    1  UNL1       -0.0218
     19 C         139.9798  137.6935  162.4778 C.3     1  UNL1        0.0310
     20 C         137.9620  138.7473  167.1488 C.2     1  UNL1        0.0729
     21 O         138.5998  139.3929  168.3431 O.co2   1  UNL1       -0.5446
     22 O         136.9481  137.6581  167.3372 O.co2   1  UNL1       -0.5446
     23 C         141.7754  142.7553  157.2673 C.3     1  UNL1        0.2525
     24 O         140.5950  141.8523  157.4701 O.3     1  UNL1       -0.4714
     25 N         142.7790  136.0512  155.3897 N.pl3   1  UNL1       -0.2747
     26 C         142.0780  135.7644  154.0949 C.3     1  UNL1        0.1151
     27 C         144.0672  135.3552  155.7153 C.3     1  UNL1        0.1151
     28 C         143.4074  139.7646  158.9696 C.3     1  UNL1        0.1428
     29 N         143.4014  139.6531  160.4655 N.am    1  UNL1       -0.2380
     30 C         143.5580  138.3878  161.2559 C.2     1  UNL1        0.4055
     31 O         143.7481  137.0121  160.6893 O.2     1  UNL1       -0.2262
     32 O         143.4911  138.7400  162.7125 O.3     1  UNL1       -0.4320
     33 C         143.2932  140.2229  162.8222 C.3     1  UNL1        0.2109
     34 C         143.2377  140.7871  161.4335 C.3     1  UNL1        0.1233
     35 C         143.0513  142.2318  161.0756 C.3     1  UNL1        0.0258
     36 C         143.1719  141.0042  164.0968 C.ar    1  UNL1        0.0235
     37 C         142.0367  140.7317  165.0386 C.ar    1  UNL1        0.0290
     38 C         141.9155  141.5130  166.3132 C.ar    1  UNL1        0.1422
     39 F         140.7802  141.2405  167.2549 F       1  UNL1       -0.2041
     40 C         142.9295  142.5670  166.6462 C.ar    1  UNL1        0.0592
     41 C         144.0649  142.8396  165.7045 C.ar    1  UNL1        0.1422
     42 F         145.0790  143.8935  166.0374 F       1  UNL1       -0.2041
     43 C         144.1860  142.0581  164.4298 C.ar    1  UNL1        0.0290
@<TRIPOS>UNITY_ATOM_ATTR
21 1
charge -1
@<TRIPOS>BOND
     1    23    24    1
     2    24     7    1
     3     7     8   ar
     4     8     9   ar
     5     9    10   ar
     6    10    13    1
     7    13    14   ar
     8    14    15   ar
     9    15    16   ar
    10    16    20    1
    11    20    21   ar
    12    20    22   ar
    13    16    17   ar
    14    17    18   ar
    15    18    19    1
    16    10    11   ar
    17    11    12   ar
    18    12     1    1
    19     1     2   ar
    20     2     3   ar
    21     3     4   ar
    22     4    25    1
    23    25    26    1
    24    25    27    1
    25     4     5   ar
    26     5     6   ar
    27     6    28    1
    28    28    29    1
    29    29    30   am
    30    30    31    2
    31    30    32    1
    32    32    33    1
    33    33    36    1
    34    36    37   ar
    35    37    38   ar
    36    38    39    1
    37    38    40   ar
    38    40    41   ar
    39    41    42    1
    40    41    43   ar
    41    33    34    1
    42    34    35    1
    43    12     7   ar
    44     6     1   ar
    45    34    29    1
    46    18    13   ar
    47    43    36   ar
@<TRIPOS>MOLECULE
*****
 43 47 0 0 0
SMALL
GASTEIGER

@<TRIPOS>ATOM
      1 C         139.4251  141.1304  158.1675 C.ar    1  UNL1        0.0375
      2 C         138.1419  140.8139  157.4581 C.ar    1  UNL1        0.1031
      3 N         137.5515  141.8039  156.4983 N.ar    1  UNL1       -0.2121
      4 C         138.2443  143.1106  156.2478 C.ar    1  UNL1        0.2200
      5 N         139.5275  143.4271  156.9571 N.ar    1  UNL1       -0.2163
      6 C         140.1179  142.4370  157.9170 C.ar    1  UNL1        0.0836
      7 C         141.1351  139.2446  158.6867 C.ar    1  UNL1        0.1387
      8 C         141.7254  138.2545  159.6465 C.ar    1  UNL1        0.0369
      9 C         141.1962  138.1603  161.0469 C.ar    1  UNL1        0.0031
     10 C         140.0767  139.0561  161.4875 C.ar    1  UNL1       -0.0001
     11 C         139.4863  140.0461  160.5277 C.ar    1  UNL1        0.0031
     12 C         140.0155  140.1403  159.1273 C.ar    1  UNL1        0.0367
     13 C         139.5475  138.9618  162.8879 C.ar    1  UNL1       -0.0039
     14 C         139.7414  137.7028  163.6798 C.ar    1  UNL1       -0.0003
     15 C         139.2122  137.6085  165.0801 C.ar    1  UNL1        0.0011
     16 C         138.4891  138.7733  165.6886 C.ar    1  UNL1        0.0137
     17 C         138.2951  140.0324  164.8967 C.ar    1  UNL1       -0.0031
     18 C         138.8244  140.1266  163.4963 C.ar    1  UNL1       -0.0218
     19 C         138.6304  141.3858  162.7044 C.3     1  UNL1        0.0310
     20 C         137.9598  138.6791  167.0890 C.2     1  UNL1        0.0729
     21 O         136.7891  137.7911  167.3902 O.co2   1  UNL1       -0.5446
     22 O         138.6014  139.4729  168.1882 O.co2   1  UNL1       -0.5446
     23 C         141.1972  138.3695  156.2412 C.3     1  UNL1        0.2525
     24 O         141.6643  139.3388  157.2864 O.3     1  UNL1       -0.4714
     25 N         137.6539  144.1006  155.2880 N.pl3   1  UNL1       -0.2747
     26 C         138.1196  145.5264  155.3001 C.3     1  UNL1        0.1151
     27 C         136.5978  143.6648  154.3162 C.3     1  UNL1        0.1151
     28 C         141.4012  142.7536  158.6263 C.3     1  UNL1        0.1428
     29 N         141.3769  143.1914  160.0608 N.am    1  UNL1       -0.2380
     30 C         140.6011  144.3488  160.6163 C.2     1  UNL1        0.4055
     31 O         139.7134  145.2715  159.8350 O.2     1  UNL1       -0.2262
     32 O         140.8688  144.4214  162.0905 O.3     1  UNL1       -0.4320
     33 C         141.8102  143.3089  162.4460 C.3     1  UNL1        0.2109
     34 C         142.1241  142.5487  161.1916 C.3     1  UNL1        0.1233
     35 C         143.0268  141.3554  161.0863 C.3     1  UNL1        0.0258
     36 C         142.3438  143.0092  163.8154 C.ar    1  UNL1        0.0235
     37 C         143.5831  143.6981  164.3048 C.ar    1  UNL1        0.0290
     38 C         144.1167  143.3983  165.6742 C.ar    1  UNL1        0.1422
     39 F         145.3560  144.0873  166.1636 F       1  UNL1       -0.2041
     40 C         143.4110  142.4097  166.5543 C.ar    1  UNL1        0.0592
     41 C         142.1717  141.7207  166.0649 C.ar    1  UNL1        0.1422
     42 F         141.4660  140.7320  166.9450 F       1  UNL1       -0.2041
     43 C         141.6381  142.0205  164.6955 C.ar    1  UNL1        0.0290
@<TRIPOS>UNITY_ATOM_ATTR
21 1
charge -1
@<TRIPOS>BOND
     1    23    24    1
     2    24     7    1
     3     7     8   ar
     4     8     9   ar
     5     9    10   ar
     6    10    13    1
     7    13    14   ar
     8    14    15   ar
     9    15    16   ar
    10    16    20    1
    11    20    21   ar
    12    20    22   ar
    13    16    17   ar
    14    17    18   ar
    15    18    19    1
    16    10    11   ar
    17    11    12   ar
    18    12     1    1
    19     1     2   ar
    20     2     3   ar
    21     3     4   ar
    22     4    25    1
    23    25    26    1
    24    25    27    1
    25     4     5   ar
    26     5     6   ar
    27     6    28    1
    28    28    29    1
    29    29    30   am
    30    30    31    2
    31    30    32    1
    32    32    33    1
    33    33    36    1
    34    36    37   ar
    35    37    38   ar
    36    38    39    1
    37    38    40   ar
    38    40    41   ar
    39    41    42    1
    40    41    43   ar
    41    33    34    1
    42    34    35    1
    43    12     7   ar
    44     6     1   ar
    45    34    29    1
    46    18    13   ar
    47    43    36   ar
@<TRIPOS>MOLECULE
*****
 43 47 0 0 0
SMALL
GASTEIGER

@<TRIPOS>ATOM
      1 C         140.3664  138.6529  157.7081 C.ar    1  UNL1        0.0375
      2 C         139.8521  137.3409  157.1943 C.ar    1  UNL1        0.1031
      3 N         139.0668  137.2914  155.9173 N.ar    1  UNL1       -0.2121
      4 C         138.7957  138.5540  155.1540 C.ar    1  UNL1        0.2200
      5 N         139.3100  139.8660  155.6679 N.ar    1  UNL1       -0.2163
      6 C         140.0954  139.9155  156.9450 C.ar    1  UNL1        0.0836
      7 C         142.6507  138.7399  158.9429 C.ar    1  UNL1        0.1387
      8 C         143.4359  138.7893  160.2199 C.ar    1  UNL1        0.0369
      9 C         142.7223  138.8012  161.5393 C.ar    1  UNL1        0.0031
     10 C         141.2234  138.7637  161.5815 C.ar    1  UNL1       -0.0001
     11 C         140.4381  138.7143  160.3045 C.ar    1  UNL1        0.0031
     12 C         141.1518  138.7023  158.9852 C.ar    1  UNL1        0.0367
     13 C         140.5098  138.7756  162.9009 C.ar    1  UNL1       -0.0039
     14 C         139.6079  137.6373  163.2760 C.ar    1  UNL1       -0.0003
     15 C         138.8943  137.6492  164.5954 C.ar    1  UNL1        0.0011
     16 C         139.0825  138.7994  165.5395 C.ar    1  UNL1        0.0137
     17 C         139.9844  139.9378  165.1643 C.ar    1  UNL1       -0.0031
     18 C         140.6980  139.9259  163.8450 C.ar    1  UNL1       -0.0218
     19 C         141.5999  141.0643  163.4698 C.3     1  UNL1        0.0310
     20 C         138.3689  138.8113  166.8588 C.2     1  UNL1        0.0729
     21 O         138.9566  139.5529  168.0227 O.co2   1  UNL1       -0.5446
     22 O         137.0676  138.0817  167.0142 O.co2   1  UNL1       -0.5446
     23 C         143.9890  139.9861  157.0974 C.3     1  UNL1        0.2525
     24 O         143.3643  138.7280  157.6236 O.3     1  UNL1       -0.4714
     25 N         138.0104  138.5045  153.8770 N.pl3   1  UNL1       -0.2747
     26 C         137.1479  139.6662  153.4815 C.3     1  UNL1        0.1151
     27 C         138.0876  137.2933  152.9956 C.3     1  UNL1        0.1151
     28 C         140.6096  141.2275  157.4588 C.3     1  UNL1        0.1428
     29 N         139.8556  141.9619  158.5276 N.am    1  UNL1       -0.2380
     30 C         138.4112  142.3623  158.4708 C.2     1  UNL1        0.4055
     31 O         137.4671  142.0988  157.3354 O.2     1  UNL1       -0.2262
     32 O         138.0765  143.0727  159.7489 O.3     1  UNL1       -0.4320
     33 C         139.3142  143.1112  160.5956 C.3     1  UNL1        0.2109
     34 C         140.4137  142.4247  159.8408 C.3     1  UNL1        0.1233
     35 C         141.8237  142.2344  160.3157 C.3     1  UNL1        0.0258
     36 C         139.4317  143.7279  161.9578 C.ar    1  UNL1        0.0235
     37 C         140.7044  144.4091  162.3656 C.ar    1  UNL1        0.0290
     38 C         140.8218  145.0258  163.7278 C.ar    1  UNL1        0.1422
     39 F         142.0945  145.7070  164.1355 F       1  UNL1       -0.2041
     40 C         139.6666  144.9614  164.6824 C.ar    1  UNL1        0.0592
     41 C         138.3938  144.2802  164.2748 C.ar    1  UNL1        0.1422
     42 F         137.2386  144.2158  165.2294 F       1  UNL1       -0.2041
     43 C         138.2765  143.6635  162.9124 C.ar    1  UNL1        0.0290
@<TRIPOS>UNITY_ATOM_ATTR
21 1
charge -1
@<TRIPOS>BOND
     1    23    24    1
     2    24     7    1
     3     7     8   ar
     4     8     9   ar
     5     9    10   ar
     6    10    13    1
     7    13    14   ar
     8    14    15   ar
     9    15    16   ar
    10    16    20    1
    11    20    21   ar
    12    20    22   ar
    13    16    17   ar
    14    17    18   ar
    15    18    19    1
    16    10    11   ar
    17    11    12   ar
    18    12     1    1
    19     1     2   ar
    20     2     3   ar
    21     3     4   ar
    22     4    25    1
    23    25    26    1
    24    25    27    1
    25     4     5   ar
    26     5     6   ar
    27     6    28    1
    28    28    29    1
    29    29    30   am
    30    30    31    2
    31    30    32    1
    32    32    33    1
    33    33    36    1
    34    36    37   ar
    35    37    38   ar
    36    38    39    1
    37    38    40   ar
    38    40    41   ar
    39    41    42    1
    40    41    43   ar
    41    33    34    1
    42    34    35    1
    43    12     7   ar
    44     6     1   ar
    45    34    29    1
    46    18    13   ar
    47    43    36   ar
@<TRIPOS>MOLECULE
*****
 43 47 0 0 0
SMALL
GASTEIGER

@<TRIPOS>ATOM
      1 C         140.2269  140.4636  158.2237 C.ar    1  UNL1        0.0375
      2 C         140.6336  141.2197  156.9937 C.ar    1  UNL1        0.1031
      3 N         139.5866  141.7731  156.0730 N.ar    1  UNL1       -0.2121
      4 C         138.1329  141.5704  156.3824 C.ar    1  UNL1        0.2200
      5 N         137.7262  140.8143  157.6124 N.ar    1  UNL1       -0.2163
      6 C         138.7732  140.2609  158.5330 C.ar    1  UNL1        0.0836
      7 C         141.9219  138.5928  158.8375 C.ar    1  UNL1        0.1387
      8 C         142.9689  138.0394  159.7581 C.ar    1  UNL1        0.0369
      9 C         143.3679  138.8036  160.9856 C.ar    1  UNL1        0.0031
     10 C         142.7199  140.1212  161.2925 C.ar    1  UNL1       -0.0001
     11 C         141.6729  140.6745  160.3719 C.ar    1  UNL1        0.0031
     12 C         141.2739  139.9103  159.1444 C.ar    1  UNL1        0.0367
     13 C         143.1189  140.8854  162.5200 C.ar    1  UNL1       -0.0039
     14 C         143.7417  142.2435  162.3885 C.ar    1  UNL1       -0.0003
     15 C         144.1407  143.0077  163.6161 C.ar    1  UNL1        0.0011
     16 C         143.9168  142.4137  164.9751 C.ar    1  UNL1        0.0137
     17 C         143.2940  141.0556  165.1066 C.ar    1  UNL1       -0.0031
     18 C         142.8950  140.2914  163.8791 C.ar    1  UNL1       -0.0218
     19 C         142.2721  138.9331  164.0106 C.3     1  UNL1        0.0310
     20 C         144.3158  143.1779  166.2026 C.2     1  UNL1        0.0729
     21 O         145.2926  144.3113  166.0960 O.co2   1  UNL1       -0.5446
     22 O         143.7380  142.8088  167.5367 O.co2   1  UNL1       -0.5446
     23 C         142.4316  136.7714  157.0563 C.3     1  UNL1        0.2525
     24 O         141.5229  137.8286  157.6099 O.3     1  UNL1       -0.4714
     25 N         137.0859  142.1238  155.4617 N.pl3   1  UNL1       -0.2747
     26 C         136.9460  143.6074  155.2906 C.3     1  UNL1        0.1151
     27 C         136.1788  141.1935  154.7122 C.3     1  UNL1        0.1151
     28 C         138.3665  139.5048  159.7630 C.3     1  UNL1        0.1428
     29 N         138.4084  140.1758  161.1040 N.am    1  UNL1       -0.2380
     30 C         138.2348  141.6434  161.3612 C.2     1  UNL1        0.4055
     31 O         137.9889  142.6975  160.3229 O.2     1  UNL1       -0.2262
     32 O         138.3503  141.8717  162.8393 O.3     1  UNL1       -0.4320
     33 C         138.5953  140.5452  163.4955 C.3     1  UNL1        0.2109
     34 C         138.6312  139.4971  162.4230 C.3     1  UNL1        0.1233
     35 C         138.8512  138.0283  162.6326 C.3     1  UNL1        0.0258
     36 C         138.7732  140.3083  164.9659 C.ar    1  UNL1        0.0235
     37 C         137.9606  139.2556  165.6598 C.ar    1  UNL1        0.0290
     38 C         138.1385  139.0188  167.1302 C.ar    1  UNL1        0.1422
     39 F         137.3259  137.9660  167.8240 F       1  UNL1       -0.2041
     40 C         139.1289  139.8347  167.9068 C.ar    1  UNL1        0.0592
     41 C         139.9416  140.8875  167.2130 C.ar    1  UNL1        0.1422
     42 F         140.9320  141.7035  167.9897 F       1  UNL1       -0.2041
     43 C         139.7636  141.1243  165.7425 C.ar    1  UNL1        0.0290
@<TRIPOS>UNITY_ATOM_ATTR
21 1
charge -1
@<TRIPOS>BOND
     1    23    24    1
     2    24     7    1
     3     7     8   ar
     4     8     9   ar
     5     9    10   ar
     6    10    13    1
     7    13    14   ar
     8    14    15   ar
     9    15    16   ar
    10    16    20    1
    11    20    21   ar
    12    20    22   ar
    13    16    17   ar
    14    17    18   ar
    15    18    19    1
    16    10    11   ar
    17    11    12   ar
    18    12     1    1
    19     1     2   ar
    20     2     3   ar
    21     3     4   ar
    22     4    25    1
    23    25    26    1
    24    25    27    1
    25     4     5   ar
    26     5     6   ar
    27     6    28    1
    28    28    29    1
    29    29    30   am
    30    30    31    2
    31    30    32    1
    32    32    33    1
    33    33    36    1
    34    36    37   ar
    35    37    38   ar
    36    38    39    1
    37    38    40   ar
    38    40    41   ar
    39    41    42    1
    40    41    43   ar
    41    33    34    1
    42    34    35    1
    43    12     7   ar
    44     6     1   ar
    45    34    29    1
    46    18    13   ar
    47    43    36   ar
@<TRIPOS>MOLECULE
*****
 43 47 0 0 0
SMALL
GASTEIGER

@<TRIPOS>ATOM
      1 C         142.9553  139.8808  161.6818 C.ar    1  UNL1        0.0375
      2 C         143.5267  138.5233  161.3979 C.ar    1  UNL1        0.1031
      3 N         143.1268  137.7864  160.1541 N.ar    1  UNL1       -0.2121
      4 C         142.1556  138.4071  159.1941 C.ar    1  UNL1        0.2200
      5 N         141.5842  139.7646  159.4780 N.ar    1  UNL1       -0.2163
      6 C         141.9841  140.5015  160.7219 C.ar    1  UNL1        0.0836
      7 C         144.5375  141.5405  162.9034 C.ar    1  UNL1        0.1387
      8 C         144.9374  142.2773  164.1472 C.ar    1  UNL1        0.0369
      9 C         144.1549  142.0913  165.4134 C.ar    1  UNL1        0.0031
     10 C         142.9726  141.1685  165.4357 C.ar    1  UNL1       -0.0001
     11 C         142.5728  140.4317  164.1918 C.ar    1  UNL1        0.0031
     12 C         143.3552  140.6177  162.9257 C.ar    1  UNL1        0.0367
     13 C         142.1901  140.9825  166.7018 C.ar    1  UNL1       -0.0039
     14 C         142.5962  139.9260  167.6861 C.ar    1  UNL1       -0.0003
     15 C         141.8137  139.7400  168.9522 C.ar    1  UNL1        0.0011
     16 C         140.6252  140.6105  169.2341 C.ar    1  UNL1        0.0137
     17 C         140.2191  141.6671  168.2499 C.ar    1  UNL1       -0.0031
     18 C         141.0016  141.8531  166.9837 C.ar    1  UNL1       -0.0218
     19 C         140.5955  142.9097  165.9994 C.3     1  UNL1        0.0310
     20 C         139.8427  140.4246  170.5003 C.2     1  UNL1        0.0729
     21 O         140.4683  140.7523  171.8236 O.co2   1  UNL1       -0.5446
     22 O         138.4346  139.9108  170.4432 O.co2   1  UNL1       -0.5446
     23 C         144.9578  142.8290  160.6868 C.3     1  UNL1        0.2525
     24 O         145.3200  141.7265  161.6372 O.3     1  UNL1       -0.4714
     25 N         141.7557  137.6702  157.9503 N.pl3   1  UNL1       -0.2747
     26 C         142.7231  136.7331  157.2900 C.3     1  UNL1        0.1151
     27 C         140.3885  137.8705  157.3667 C.3     1  UNL1        0.1151
     28 C         141.4127  141.8591  161.0058 C.3     1  UNL1        0.1428
     29 N         140.5751  142.5514  159.9718 N.am    1  UNL1       -0.2380
     30 C         139.0763  142.6027  159.9414 C.2     1  UNL1        0.4055
     31 O         138.1519  141.9706  160.9395 O.2     1  UNL1       -0.2262
     32 O         138.6640  143.3970  158.7376 O.3     1  UNL1       -0.4320
     33 C         139.9081  143.8367  158.0241 C.3     1  UNL1        0.2109
     34 C         141.0892  143.3140  158.7869 C.3     1  UNL1        0.1233
     35 C         142.5311  143.5182  158.4279 C.3     1  UNL1        0.0258
     36 C         139.9616  144.6551  156.7683 C.ar    1  UNL1        0.0235
     37 C         140.2641  143.9956  155.4554 C.ar    1  UNL1        0.0290
     38 C         140.3176  144.8141  154.1996 C.ar    1  UNL1        0.1422
     39 F         140.6201  144.1546  152.8868 F       1  UNL1       -0.2041
     40 C         140.0687  146.2922  154.2566 C.ar    1  UNL1        0.0592
     41 C         139.7663  146.9519  155.5695 C.ar    1  UNL1        0.1422
     42 F         139.5174  148.4300  155.6264 F       1  UNL1       -0.2041
     43 C         139.7128  146.1332  156.8252 C.ar    1  UNL1        0.0290
@<TRIPOS>UNITY_ATOM_ATTR
21 1
charge -1
@<TRIPOS>BOND
     1    23    24    1
     2    24     7    1
     3     7     8   ar
     4     8     9   ar
     5     9    10   ar
     6    10    13    1
     7    13    14   ar
     8    14    15   ar
     9    15    16   ar
    10    16    20    1
    11    20    21   ar
    12    20    22   ar
    13    16    17   ar
    14    17    18   ar
    15    18    19    1
    16    10    11   ar
    17    11    12   ar
    18    12     1    1
    19     1     2   ar
    20     2     3   ar
    21     3     4   ar
    22     4    25    1
    23    25    26    1
    24    25    27    1
    25     4     5   ar
    26     5     6   ar
    27     6    28    1
    28    28    29    1
    29    29    30   am
    30    30    31    2
    31    30    32    1
    32    32    33    1
    33    33    36    1
    34    36    37   ar
    35    37    38   ar
    36    38    39    1
    37    38    40   ar
    38    40    41   ar
    39    41    42    1
    40    41    43   ar
    41    33    34    1
    42    34    35    1
    43    12     7   ar
    44     6     1   ar
    45    34    29    1
    46    18    13   ar
    47    43    36   ar
@<TRIPOS>MOLECULE
*****
 43 47 0 0 0
SMALL
GASTEIGER

@<TRIPOS>ATOM
      1 C         140.9570  140.3698  165.4143 C.ar    1  UNL1        0.0375
      2 C         141.4909  139.2381  166.2414 C.ar    1  UNL1        0.1031
      3 N         142.2075  139.5224  167.5281 N.ar    1  UNL1       -0.2121
      4 C         142.3902  140.9386  167.9877 C.ar    1  UNL1        0.2200
      5 N         141.8563  142.0703  167.1606 N.ar    1  UNL1       -0.2163
      6 C         141.1397  141.7859  165.8739 C.ar    1  UNL1        0.0836
      7 C         138.7559  139.8706  164.1274 C.ar    1  UNL1        0.1387
      8 C         138.0393  139.5863  162.8407 C.ar    1  UNL1        0.0369
      9 C         138.8073  139.5167  161.5541 C.ar    1  UNL1        0.0031
     10 C         140.2918  139.7315  161.5542 C.ar    1  UNL1       -0.0001
     11 C         141.0083  140.0159  162.8409 C.ar    1  UNL1        0.0031
     12 C         140.2404  140.0855  164.1275 C.ar    1  UNL1        0.0367
     13 C         141.0598  139.6620  160.2676 C.ar    1  UNL1       -0.0039
     14 C         140.7259  140.5972  159.1434 C.ar    1  UNL1       -0.0003
     15 C         141.4939  140.5276  157.8567 C.ar    1  UNL1        0.0011
     16 C         142.5957  139.5229  157.6943 C.ar    1  UNL1        0.0137
     17 C         142.9296  138.5877  158.8186 C.ar    1  UNL1       -0.0031
     18 C         142.1616  138.6573  160.1052 C.ar    1  UNL1       -0.0218
     19 C         142.4955  137.7220  161.2294 C.3     1  UNL1        0.0310
     20 C         143.3637  139.4533  156.4077 C.2     1  UNL1        0.0729
     21 O         143.0802  140.4366  155.3110 O.co2   1  UNL1       -0.5446
     22 O         144.4151  138.4005  156.2178 O.co2   1  UNL1       -0.5446
     23 C         137.9124  138.7383  166.3083 C.3     1  UNL1        0.2525
     24 O         137.9879  139.9402  165.4141 O.3     1  UNL1       -0.4714
     25 N         143.1068  141.2229  169.2744 N.pl3   1  UNL1       -0.2747
     26 C         143.0620  140.2257  170.3941 C.3     1  UNL1        0.1151
     27 C         143.8682  142.5044  169.4414 C.3     1  UNL1        0.1151
     28 C         140.6058  142.9177  165.0468 C.3     1  UNL1        0.1428
     29 N         141.3737  143.4011  163.8523 N.am    1  UNL1       -0.2380
     30 C         142.8147  143.8173  163.8401 C.2     1  UNL1        0.4055
     31 O         143.7409  143.8233  165.0200 O.2     1  UNL1       -0.2262
     32 O         143.1671  144.2266  162.4406 O.3     1  UNL1       -0.4320
     33 C         141.9438  144.0632  161.5880 C.3     1  UNL1        0.2109
     34 C         140.8354  143.5530  162.4605 C.3     1  UNL1        0.1233
     35 C         139.4347  143.2483  162.0188 C.3     1  UNL1        0.0258
     36 C         141.8460  144.3582  160.1206 C.ar    1  UNL1        0.0235
     37 C         142.7316  143.6352  159.1495 C.ar    1  UNL1        0.0290
     38 C         142.6338  143.9302  157.6822 C.ar    1  UNL1        0.1422
     39 F         143.5194  143.2071  156.7111 F       1  UNL1       -0.2041
     40 C         141.6505  144.9483  157.1857 C.ar    1  UNL1        0.0592
     41 C         140.7648  145.6714  158.1568 C.ar    1  UNL1        0.1422
     42 F         139.7815  146.6896  157.6603 F       1  UNL1       -0.2041
     43 C         140.8627  145.3763  159.6242 C.ar    1  UNL1        0.0290
@<TRIPOS>UNITY_ATOM_ATTR
21 1
charge -1
@<TRIPOS>BOND
     1    23    24    1
     2    24     7    1
     3     7     8   ar
     4     8     9   ar
     5     9    10   ar
     6    10    13    1
     7    13    14   ar
     8    14    15   ar
     9    15    16   ar
    10    16    20    1
    11    20    21   ar
    12    20    22   ar
    13    16    17   ar
    14    17    18   ar
    15    18    19    1
    16    10    11   ar
    17    11    12   ar
    18    12     1    1
    19     1     2   ar
    20     2     3   ar
    21     3     4   ar
    22     4    25    1
    23    25    26    1
    24    25    27    1
    25     4     5   ar
    26     5     6   ar
    27     6    28    1
    28    28    29    1
    29    29    30   am
    30    30    31    2
    31    30    32    1
    32    32    33    1
    33    33    36    1
    34    36    37   ar
    35    37    38   ar
    36    38    39    1
    37    38    40   ar
    38    40    41   ar
    39    41    42    1
    40    41    43   ar
    41    33    34    1
    42    34    35    1
    43    12     7   ar
    44     6     1   ar
    45    34    29    1
    46    18    13   ar
    47    43    36   ar
@<TRIPOS>MOLECULE
*****
 43 47 0 0 0
SMALL
GASTEIGER

@<TRIPOS>ATOM
      1 C         142.7341  142.2456  159.2787 C.ar    1  UNL1        0.0375
      2 C         144.0438  142.6254  158.6540 C.ar    1  UNL1        0.1031
      3 N         144.6154  141.7925  157.5452 N.ar    1  UNL1       -0.2121
      4 C         143.8774  140.5796  157.0611 C.ar    1  UNL1        0.2200
      5 N         142.5676  140.1997  157.6859 N.ar    1  UNL1       -0.2163
      6 C         141.9960  141.0328  158.7947 C.ar    1  UNL1        0.0836
      7 C         141.3006  144.2638  160.0674 C.ar    1  UNL1        0.1387
      8 C         140.7290  145.0967  161.1762 C.ar    1  UNL1        0.0369
      9 C         141.0192  144.7444  162.6051 C.ar    1  UNL1        0.0031
     10 C         141.8810  143.5592  162.9252 C.ar    1  UNL1       -0.0001
     11 C         142.4526  142.7263  161.8164 C.ar    1  UNL1        0.0031
     12 C         142.1624  143.0786  160.3875 C.ar    1  UNL1        0.0367
     13 C         142.1713  143.2069  164.3541 C.ar    1  UNL1       -0.0039
     14 C         141.0509  143.1209  165.3477 C.ar    1  UNL1       -0.0003
     15 C         141.3412  142.7686  166.7766 C.ar    1  UNL1        0.0011
     16 C         142.7517  142.5023  167.2118 C.ar    1  UNL1        0.0137
     17 C         143.8720  142.5884  166.2181 C.ar    1  UNL1       -0.0031
     18 C         143.5818  142.9406  164.7893 C.ar    1  UNL1       -0.0218
     19 C         144.7022  143.0267  163.7956 C.3     1  UNL1        0.0310
     20 C         143.0419  142.1501  168.6407 C.2     1  UNL1        0.0729
     21 O         142.2785  141.0465  169.3110 O.co2   1  UNL1       -0.5446
     22 O         144.0955  142.9014  169.3992 O.co2   1  UNL1       -0.5446
     23 C         141.8049  145.6886  157.9543 C.3     1  UNL1        0.2525
     24 O         141.0104  144.6161  158.6386 O.3     1  UNL1       -0.4714
     25 N         144.4490  139.7467  155.9524 N.pl3   1  UNL1       -0.2747
     26 C         145.6557  140.2250  155.2005 C.3     1  UNL1        0.1151
     27 C         143.8140  138.4355  155.5955 C.3     1  UNL1        0.1151
     28 C         140.6863  140.6529  159.4195 C.3     1  UNL1        0.1428
     29 N         140.6636  139.8103  160.6603 N.am    1  UNL1       -0.2380
     30 C         141.4279  138.5377  160.8759 C.2     1  UNL1        0.4055
     31 O         142.3490  137.8844  159.8887 O.2     1  UNL1       -0.2262
     32 O         141.1093  138.0332  162.2522 O.3     1  UNL1       -0.4320
     33 C         140.1481  138.9941  162.8871 C.3     1  UNL1        0.2109
     34 C         139.8727  140.0923  161.9032 C.3     1  UNL1        0.1233
     35 C         138.9656  141.2664  162.1236 C.3     1  UNL1        0.0258
     36 C         139.5649  138.8772  164.2640 C.ar    1  UNL1        0.0235
     37 C         138.7766  137.6588  164.6437 C.ar    1  UNL1        0.0290
     38 C         138.1934  137.5418  166.0207 C.ar    1  UNL1        0.1422
     39 F         137.4051  136.3234  166.4003 F       1  UNL1       -0.2041
     40 C         138.3983  138.6433  167.0180 C.ar    1  UNL1        0.0592
     41 C         139.1866  139.8618  166.6384 C.ar    1  UNL1        0.1422
     42 F         139.3915  140.9633  167.6357 F       1  UNL1       -0.2041
     43 C         139.7698  139.9786  165.2613 C.ar    1  UNL1        0.0290
@<TRIPOS>UNITY_ATOM_ATTR
21 1
charge -1
@<TRIPOS>BOND
     1    23    24    1
     2    24     7    1
     3     7     8   ar
     4     8     9   ar
     5     9    10   ar
     6    10    13    1
     7    13    14   ar
     8    14    15   ar
     9    15    16   ar
    10    16    20    1
    11    20    21   ar
    12    20    22   ar
    13    16    17   ar
    14    17    18   ar
    15    18    19    1
    16    10    11   ar
    17    11    12   ar
    18    12     1    1
    19     1     2   ar
    20     2     3   ar
    21     3     4   ar
    22     4    25    1
    23    25    26    1
    24    25    27    1
    25     4     5   ar
    26     5     6   ar
    27     6    28    1
    28    28    29    1
    29    29    30   am
    30    30    31    2
    31    30    32    1
    32    32    33    1
    33    33    36    1
    34    36    37   ar
    35    37    38   ar
    36    38    39    1
    37    38    40   ar
    38    40    41   ar
    39    41    42    1
    40    41    43   ar
    41    33    34    1
    42    34    35    1
    43    12     7   ar
    44     6     1   ar
    45    34    29    1
    46    18    13   ar
    47    43    36   ar
