@<TRIPOS>MOLECULE
*****
 43 48 0 0 0
SMALL
GASTEIGER

@<TRIPOS>ATOM
      1 C         138.5337  140.2642  162.2033 C.ar    1  UNL1        0.0214
      2 C         138.8294  138.8491  162.6031 C.ar    1  UNL1       -0.0006
      3 C         138.7400  138.4425  164.0442 C.ar    1  UNL1        0.0031
      4 C         138.3548  139.4511  165.0855 C.ar    1  UNL1        0.0442
      5 C         138.0590  140.8663  164.6857 C.ar    1  UNL1        0.0326
      6 C         138.1485  141.2728  163.2446 C.ar    1  UNL1        0.1375
      7 F         137.8527  142.6880  162.8448 F       1  UNL1       -0.2045
      8 C         138.2654  139.0445  166.5266 C.2     1  UNL1        0.2298
      9 O         137.1690  138.1269  166.9803 O.2     1  UNL1       -0.2833
     10 C         139.2723  139.5556  167.5139 C.ar    1  UNL1        0.1873
     11 N         139.0149  139.8546  168.9611 N.ar    1  UNL1       -0.2235
     12 C         140.2970  140.3413  169.5690 C.ar    1  UNL1        0.0991
     13 C         140.6441  140.7830  170.9598 C.ar    1  UNL1        0.0206
     14 C         142.0410  141.2265  171.2791 C.ar    1  UNL1        0.0016
     15 C         143.0907  141.2283  170.2077 C.ar    1  UNL1        0.0016
     16 C         142.7436  140.7865  168.8169 C.ar    1  UNL1        0.0191
     17 C         141.3467  140.3430  168.4976 C.ar    1  UNL1        0.0830
     18 N         140.7134  139.8575  167.2275 N.ar    1  UNL1       -0.2877
     19 C         141.4007  139.7012  165.9033 C.ar    1  UNL1        0.0656
     20 C         141.8976  138.3538  165.4706 C.ar    1  UNL1        0.0199
     21 C         142.5848  138.1975  164.1465 C.ar    1  UNL1        0.0311
     22 C         142.7751  139.3888  163.2550 C.ar    1  UNL1        0.1402
     23 F         143.4624  139.2325  161.9309 F       1  UNL1       -0.2042
     24 C         142.2782  140.7363  163.6877 C.ar    1  UNL1        0.0311
     25 C         141.5910  140.8926  165.0119 C.ar    1  UNL1        0.0199
     26 C         138.6231  140.6708  160.7622 C.3     1  UNL1        0.1014
     27 C         141.5307  138.6056  158.0180 C.3     1  UNL1        0.0251
     28 C         140.0611  138.3293  157.8987 C.3     1  UNL1        0.0217
     29 C         139.0919  139.0178  158.8134 C.3     1  UNL1        0.0727
     30 N         139.5923  139.9824  159.8475 N.3     1  UNL1       -0.2689
     31 C         141.0618  140.2586  159.9667 C.3     1  UNL1        0.0727
     32 C         142.0310  139.5702  159.0520 C.3     1  UNL1        0.0217
     33 C         143.7428  135.7630  156.3518 C.ar    1  UNL1        0.0500
     34 C         144.4383  136.5403  155.2738 C.ar    1  UNL1        0.0147
     35 C         144.1645  138.0061  155.1105 C.ar    1  UNL1        0.0009
     36 C         143.1953  138.6945  156.0253 C.ar    1  UNL1       -0.0042
     37 C         142.4999  137.9172  157.1033 C.ar    1  UNL1       -0.0212
     38 C         142.7736  136.4514  157.2666 C.ar    1  UNL1        0.0104
     39 C         143.2260  131.8281  156.3462 C.3     1  UNL1        0.0949
     40 C         142.9522  133.2939  156.1829 C.2     1  UNL1        0.2266
     41 O         141.6141  133.7562  155.6874 O.2     1  UNL1       -0.2748
     42 N         144.0166  134.2973  156.5151 N.am    1  UNL1       -0.2839
     43 H         144.8949  133.9938  156.8403 H       1  UNL1        0.1549
@<TRIPOS>BOND
     1    39    40    1
     2    40    41    2
     3    40    42   am
     4    42    33    1
     5    33    34   ar
     6    34    35   ar
     7    35    36   ar
     8    36    37   ar
     9    37    27    1
    10    27    28    1
    11    28    29    1
    12    29    30    1
    13    30    26    1
    14    26     1    1
    15     1     2   ar
    16     2     3   ar
    17     3     4   ar
    18     4     8    1
    19     8     9    2
    20     8    10    1
    21    10    11   ar
    22    11    12   ar
    23    12    13   ar
    24    13    14   ar
    25    14    15   ar
    26    15    16   ar
    27    16    17   ar
    28    17    18   ar
    29    18    19    1
    30    19    20   ar
    31    20    21   ar
    32    21    22   ar
    33    22    23    1
    34    22    24   ar
    35    24    25   ar
    36     4     5   ar
    37     5     6   ar
    38     6     7    1
    39    30    31    1
    40    31    32    1
    41    37    38   ar
    42    38    33   ar
    43    32    27    1
    44     6     1   ar
    45    18    10   ar
    46    25    19   ar
    47    17    12   ar
    48    42    43    1
@<TRIPOS>MOLECULE
*****
 43 48 0 0 0
SMALL
GASTEIGER

@<TRIPOS>ATOM
      1 C         138.3709  138.8710  162.5003 C.ar    1  UNL1        0.0214
      2 C         138.8231  137.6874  163.3031 C.ar    1  UNL1       -0.0006
      3 C         138.8718  137.7709  164.8000 C.ar    1  UNL1        0.0031
      4 C         138.4682  139.0380  165.4941 C.ar    1  UNL1        0.0442
      5 C         138.0159  140.2216  164.6911 C.ar    1  UNL1        0.0326
      6 C         137.9673  140.1381  163.1943 C.ar    1  UNL1        0.1375
      7 F         137.5150  141.3217  162.3914 F       1  UNL1       -0.2045
      8 C         138.5169  139.1215  166.9909 C.2     1  UNL1        0.2298
      9 O         137.5143  138.3715  167.8169 O.2     1  UNL1       -0.2833
     10 C         139.5681  139.9550  167.6618 C.ar    1  UNL1        0.1873
     11 N         139.4542  140.5987  169.0118 N.ar    1  UNL1       -0.2235
     12 C         140.7336  141.3327  169.2849 C.ar    1  UNL1        0.0991
     13 C         141.1916  142.1496  170.4565 C.ar    1  UNL1        0.0206
     14 C         142.5543  142.7764  170.4469 C.ar    1  UNL1        0.0016
     15 C         143.4590  142.5863  169.2656 C.ar    1  UNL1        0.0016
     16 C         143.0009  141.7694  168.0939 C.ar    1  UNL1        0.0191
     17 C         141.6382  141.1426  168.1036 C.ar    1  UNL1        0.0830
     18 N         140.9179  140.2911  167.1005 N.ar    1  UNL1       -0.2877
     19 C         141.4534  139.8528  165.7697 C.ar    1  UNL1        0.0656
     20 C         141.4255  140.7947  164.6027 C.ar    1  UNL1        0.0199
     21 C         141.9610  140.3564  163.2719 C.ar    1  UNL1        0.0311
     22 C         142.5245  138.9760  163.1080 C.ar    1  UNL1        0.1402
     23 F         143.0600  138.5376  161.7772 F       1  UNL1       -0.2042
     24 C         142.5525  138.0339  164.2750 C.ar    1  UNL1        0.0311
     25 C         142.0170  138.4723  165.6058 C.ar    1  UNL1        0.0199
     26 C         138.3222  138.7875  161.0033 C.3     1  UNL1        0.1014
     27 C         140.2246  142.0123  158.5070 C.3     1  UNL1        0.0251
     28 C         138.7415  141.7951  158.4482 C.3     1  UNL1        0.0217
     29 C         138.1074  140.7202  159.2803 C.3     1  UNL1        0.0727
     30 N         138.9563  139.8625  160.1712 N.3     1  UNL1       -0.2689
     31 C         140.4393  140.0797  160.2300 C.3     1  UNL1        0.0727
     32 C         141.0734  141.1546  159.3979 C.3     1  UNL1        0.0217
     33 C         140.9114  145.5449  156.8340 C.ar    1  UNL1        0.0500
     34 C         142.1270  145.2371  156.0108 C.ar    1  UNL1        0.0147
     35 C         142.7084  143.8545  156.0197 C.ar    1  UNL1        0.0009
     36 C         142.0743  142.7795  156.8518 C.ar    1  UNL1       -0.0042
     37 C         140.8587  143.0873  157.6749 C.ar    1  UNL1       -0.0212
     38 C         140.2773  144.4700  157.6661 C.ar    1  UNL1        0.0104
     39 C         138.6286  148.6470  155.8769 C.3     1  UNL1        0.0949
     40 C         139.2100  147.2643  155.8858 C.2     1  UNL1        0.2266
     41 O         138.6714  146.2182  154.9554 O.2     1  UNL1       -0.2748
     42 N         140.3300  146.9276  156.8251 N.am    1  UNL1       -0.2839
     43 H         140.6835  147.6142  157.4357 H       1  UNL1        0.1549
@<TRIPOS>BOND
     1    39    40    1
     2    40    41    2
     3    40    42   am
     4    42    33    1
     5    33    34   ar
     6    34    35   ar
     7    35    36   ar
     8    36    37   ar
     9    37    27    1
    10    27    28    1
    11    28    29    1
    12    29    30    1
    13    30    26    1
    14    26     1    1
    15     1     2   ar
    16     2     3   ar
    17     3     4   ar
    18     4     8    1
    19     8     9    2
    20     8    10    1
    21    10    11   ar
    22    11    12   ar
    23    12    13   ar
    24    13    14   ar
    25    14    15   ar
    26    15    16   ar
    27    16    17   ar
    28    17    18   ar
    29    18    19    1
    30    19    20   ar
    31    20    21   ar
    32    21    22   ar
    33    22    23    1
    34    22    24   ar
    35    24    25   ar
    36     4     5   ar
    37     5     6   ar
    38     6     7    1
    39    30    31    1
    40    31    32    1
    41    37    38   ar
    42    38    33   ar
    43    32    27    1
    44     6     1   ar
    45    18    10   ar
    46    25    19   ar
    47    17    12   ar
    48    42    43    1
@<TRIPOS>MOLECULE
*****
 43 48 0 0 0
SMALL
GASTEIGER

@<TRIPOS>ATOM
      1 C         143.8435  141.8598  162.0429 C.ar    1  UNL1        0.0214
      2 C         144.1116  142.2259  163.4726 C.ar    1  UNL1       -0.0006
      3 C         143.6420  141.3270  164.5778 C.ar    1  UNL1        0.0031
      4 C         142.9042  140.0620  164.2533 C.ar    1  UNL1        0.0442
      5 C         142.6361  139.6958  162.8235 C.ar    1  UNL1        0.0326
      6 C         143.1057  140.5947  161.7184 C.ar    1  UNL1        0.1375
      7 F         142.8376  140.2286  160.2886 F       1  UNL1       -0.2045
      8 C         142.4346  139.1630  165.3584 C.2     1  UNL1        0.2298
      9 O         142.2490  137.6964  165.1045 O.2     1  UNL1       -0.2833
     10 C         142.1506  139.7308  166.7175 C.ar    1  UNL1        0.1873
     11 N         142.8743  139.3868  167.9855 N.ar    1  UNL1       -0.2235
     12 C         142.2640  140.1856  169.0989 C.ar    1  UNL1        0.0991
     13 C         142.5685  140.2584  170.5658 C.ar    1  UNL1        0.0206
     14 C         141.7721  141.1688  171.4528 C.ar    1  UNL1        0.0016
     15 C         140.6712  142.0065  170.8728 C.ar    1  UNL1        0.0016
     16 C         140.3667  141.9337  169.4059 C.ar    1  UNL1        0.0191
     17 C         141.1631  141.0232  168.5189 C.ar    1  UNL1        0.0830
     18 N         141.0930  140.7421  167.0471 N.ar    1  UNL1       -0.2877
     19 C         140.1337  141.3633  166.0756 C.ar    1  UNL1        0.0656
     20 C         139.0339  140.5383  165.4760 C.ar    1  UNL1        0.0199
     21 C         138.0747  141.1595  164.5044 C.ar    1  UNL1        0.0311
     22 C         138.2152  142.6059  164.1325 C.ar    1  UNL1        0.1402
     23 F         137.2559  143.2271  163.1610 F       1  UNL1       -0.2042
     24 C         139.3150  143.4310  164.7322 C.ar    1  UNL1        0.0311
     25 C         140.2743  142.8098  165.7037 C.ar    1  UNL1        0.0199
     26 C         144.3131  142.7587  160.9377 C.3     1  UNL1        0.1014
     27 C         141.3415  144.5189  158.0530 C.3     1  UNL1        0.0251
     28 C         142.5700  143.8298  157.5370 C.3     1  UNL1        0.0217
     29 C         143.5605  143.2431  158.4986 C.3     1  UNL1        0.0727
     30 N         143.3225  143.3454  159.9761 N.3     1  UNL1       -0.2689
     31 C         142.0941  144.0344  160.4920 C.3     1  UNL1        0.0727
     32 C         141.1036  144.6212  159.5304 C.3     1  UNL1        0.0217
     33 C         138.9748  147.1378  156.2391 C.ar    1  UNL1        0.0500
     34 C         138.3699  146.2790  155.1683 C.ar    1  UNL1        0.0147
     35 C         138.7555  144.8336  155.0591 C.ar    1  UNL1        0.0009
     36 C         139.7460  144.2469  156.0207 C.ar    1  UNL1       -0.0042
     37 C         140.3510  145.1056  157.0914 C.ar    1  UNL1       -0.0212
     38 C         139.9654  146.5511  157.2007 C.ar    1  UNL1        0.0104
     39 C         138.6613  151.0078  155.4174 C.3     1  UNL1        0.0949
     40 C         139.0470  149.5623  155.3081 C.2     1  UNL1        0.2266
     41 O         139.8903  149.0959  154.1587 O.2     1  UNL1       -0.2748
     42 N         138.5893  148.5833  156.3483 N.am    1  UNL1       -0.2839
     43 H         138.0357  148.8894  157.1027 H       1  UNL1        0.1549
@<TRIPOS>BOND
     1    39    40    1
     2    40    41    2
     3    40    42   am
     4    42    33    1
     5    33    34   ar
     6    34    35   ar
     7    35    36   ar
     8    36    37   ar
     9    37    27    1
    10    27    28    1
    11    28    29    1
    12    29    30    1
    13    30    26    1
    14    26     1    1
    15     1     2   ar
    16     2     3   ar
    17     3     4   ar
    18     4     8    1
    19     8     9    2
    20     8    10    1
    21    10    11   ar
    22    11    12   ar
    23    12    13   ar
    24    13    14   ar
    25    14    15   ar
    26    15    16   ar
    27    16    17   ar
    28    17    18   ar
    29    18    19    1
    30    19    20   ar
    31    20    21   ar
    32    21    22   ar
    33    22    23    1
    34    22    24   ar
    35    24    25   ar
    36     4     5   ar
    37     5     6   ar
    38     6     7    1
    39    30    31    1
    40    31    32    1
    41    37    38   ar
    42    38    33   ar
    43    32    27    1
    44     6     1   ar
    45    18    10   ar
    46    25    19   ar
    47    17    12   ar
    48    42    43    1
@<TRIPOS>MOLECULE
*****
 43 48 0 0 0
SMALL
GASTEIGER

@<TRIPOS>ATOM
      1 C         140.0673  140.9210  161.7100 C.ar    1  UNL1        0.0214
      2 C         138.7441  141.4127  162.2172 C.ar    1  UNL1       -0.0006
      3 C         138.3059  141.0814  163.6131 C.ar    1  UNL1        0.0031
      4 C         139.1909  140.2585  164.5016 C.ar    1  UNL1        0.0442
      5 C         140.5141  139.7667  163.9943 C.ar    1  UNL1        0.0326
      6 C         140.9523  140.0980  162.5985 C.ar    1  UNL1        0.1375
      7 F         142.2755  139.6062  162.0911 F       1  UNL1       -0.2045
      8 C         138.7527  139.9272  165.8974 C.2     1  UNL1        0.2298
      9 O         137.5335  139.0823  166.1201 O.2     1  UNL1       -0.2833
     10 C         139.5338  140.4409  167.0705 C.ar    1  UNL1        0.1873
     11 N         139.7096  139.7429  168.3865 N.ar    1  UNL1       -0.2235
     12 C         140.5606  140.6133  169.2629 C.ar    1  UNL1        0.0991
     13 C         141.0619  140.4401  170.6659 C.ar    1  UNL1        0.0206
     14 C         141.9134  141.5029  171.2947 C.ar    1  UNL1        0.0016
     15 C         142.2636  142.7389  170.5203 C.ar    1  UNL1        0.0016
     16 C         141.7623  142.9121  169.1172 C.ar    1  UNL1        0.0191
     17 C         140.9108  141.8493  168.4885 C.ar    1  UNL1        0.0830
     18 N         140.2762  141.7427  167.1335 N.ar    1  UNL1       -0.2877
     19 C         140.3680  142.7595  166.0346 C.ar    1  UNL1        0.0656
     20 C         139.2305  143.7067  165.7923 C.ar    1  UNL1        0.0199
     21 C         139.3223  144.7235  164.6933 C.ar    1  UNL1        0.0311
     22 C         140.5515  144.7931  163.8366 C.ar    1  UNL1        0.1402
     23 F         140.6433  145.8099  162.7376 F       1  UNL1       -0.2042
     24 C         141.6891  143.8458  164.0788 C.ar    1  UNL1        0.0311
     25 C         141.5973  142.8290  165.1778 C.ar    1  UNL1        0.0199
     26 C         140.5055  141.2522  160.3141 C.3     1  UNL1        0.1014
     27 C         141.3649  137.9485  157.3820 C.3     1  UNL1        0.0251
     28 C         139.9775  138.1290  157.9231 C.3     1  UNL1        0.0217
     29 C         139.6910  139.2303  158.9004 C.3     1  UNL1        0.0727
     30 N         140.7920  140.1510  159.3368 N.3     1  UNL1       -0.2689
     31 C         142.1792  139.9704  158.7957 C.3     1  UNL1        0.0727
     32 C         142.4657  138.8692  157.8184 C.3     1  UNL1        0.0217
     33 C         143.0847  134.8095  155.6676 C.ar    1  UNL1        0.0500
     34 C         142.2242  134.6448  154.4500 C.ar    1  UNL1        0.0147
     35 C         141.0774  135.5813  154.2097 C.ar    1  UNL1        0.0009
     36 C         140.7909  136.6825  155.1871 C.ar    1  UNL1       -0.0042
     37 C         141.6513  136.8473  156.4047 C.ar    1  UNL1       -0.0212
     38 C         142.7982  135.9108  156.6450 C.ar    1  UNL1        0.0104
     39 C         145.1462  131.6306  156.8483 C.3     1  UNL1        0.0949
     40 C         143.9993  132.5670  156.6081 C.2     1  UNL1        0.2266
     41 O         142.6203  132.1975  157.0682 O.2     1  UNL1       -0.2748
     42 N         144.2315  133.8731  155.9078 N.am    1  UNL1       -0.2839
     43 H         145.1366  134.1156  155.6059 H       1  UNL1        0.1549
@<TRIPOS>BOND
     1    39    40    1
     2    40    41    2
     3    40    42   am
     4    42    33    1
     5    33    34   ar
     6    34    35   ar
     7    35    36   ar
     8    36    37   ar
     9    37    27    1
    10    27    28    1
    11    28    29    1
    12    29    30    1
    13    30    26    1
    14    26     1    1
    15     1     2   ar
    16     2     3   ar
    17     3     4   ar
    18     4     8    1
    19     8     9    2
    20     8    10    1
    21    10    11   ar
    22    11    12   ar
    23    12    13   ar
    24    13    14   ar
    25    14    15   ar
    26    15    16   ar
    27    16    17   ar
    28    17    18   ar
    29    18    19    1
    30    19    20   ar
    31    20    21   ar
    32    21    22   ar
    33    22    23    1
    34    22    24   ar
    35    24    25   ar
    36     4     5   ar
    37     5     6   ar
    38     6     7    1
    39    30    31    1
    40    31    32    1
    41    37    38   ar
    42    38    33   ar
    43    32    27    1
    44     6     1   ar
    45    18    10   ar
    46    25    19   ar
    47    17    12   ar
    48    42    43    1
@<TRIPOS>MOLECULE
*****
 43 48 0 0 0
SMALL
GASTEIGER

@<TRIPOS>ATOM
      1 C         138.1727  140.2193  162.2345 C.ar    1  UNL1        0.0214
      2 C         137.8744  141.2060  163.3242 C.ar    1  UNL1       -0.0006
      3 C         137.9294  140.7767  164.7604 C.ar    1  UNL1        0.0031
      4 C         138.2826  139.3607  165.1069 C.ar    1  UNL1        0.0442
      5 C         138.5809  138.3740  164.0172 C.ar    1  UNL1        0.0326
      6 C         138.5260  138.8033  162.5810 C.ar    1  UNL1        0.1375
      7 F         138.8243  137.8166  161.4913 F       1  UNL1       -0.2045
      8 C         138.3376  138.9314  166.5431 C.2     1  UNL1        0.2298
      9 O         137.4016  137.8725  167.0456 O.2     1  UNL1       -0.2833
     10 C         139.3285  139.5610  167.4767 C.ar    1  UNL1        0.1873
     11 N         139.0846  139.9143  168.9139 N.ar    1  UNL1       -0.2235
     12 C         140.3427  140.5195  169.4625 C.ar    1  UNL1        0.0991
     13 C         140.6900  141.0544  170.8201 C.ar    1  UNL1        0.0206
     14 C         142.0590  141.6100  171.0796 C.ar    1  UNL1        0.0016
     15 C         143.0805  141.6307  169.9814 C.ar    1  UNL1        0.0016
     16 C         142.7331  141.0958  168.6238 C.ar    1  UNL1        0.0191
     17 C         141.3642  140.5402  168.3643 C.ar    1  UNL1        0.0830
     18 N         140.7374  139.9478  167.1371 N.ar    1  UNL1       -0.2877
     19 C         141.4028  139.7729  165.8041 C.ar    1  UNL1        0.0656
     20 C         141.5578  140.9469  164.8834 C.ar    1  UNL1        0.0199
     21 C         142.2232  140.7720  163.5505 C.ar    1  UNL1        0.0311
     22 C         142.7335  139.4231  163.1382 C.ar    1  UNL1        0.1402
     23 F         143.3989  139.2482  161.8053 F       1  UNL1       -0.2042
     24 C         142.5785  138.2491  164.0589 C.ar    1  UNL1        0.0311
     25 C         141.9131  138.4239  165.3918 C.ar    1  UNL1        0.0199
     26 C         138.1177  140.6486  160.7982 C.3     1  UNL1        0.1014
     27 C         141.5645  139.7507  158.0481 C.3     1  UNL1        0.0251
     28 C         141.7833  140.5800  159.2788 C.3     1  UNL1        0.0217
     29 C         140.6344  140.8793  160.1955 C.3     1  UNL1        0.0727
     30 N         139.2667  140.3493  159.8815 N.3     1  UNL1       -0.2689
     31 C         139.0479  139.5201  158.6509 C.3     1  UNL1        0.0727
     32 C         140.1968  139.2207  157.7342 C.3     1  UNL1        0.0217
     33 C         145.0390  140.0807  156.1590 C.ar    1  UNL1        0.0500
     34 C         145.0113  138.8527  155.2979 C.ar    1  UNL1        0.0147
     35 C         143.8347  137.9241  155.3537 C.ar    1  UNL1        0.0009
     36 C         142.6857  138.2234  156.2704 C.ar    1  UNL1       -0.0042
     37 C         142.7134  139.4514  157.1314 C.ar    1  UNL1       -0.0212
     38 C         143.8901  140.3801  157.0757 C.ar    1  UNL1        0.0104
     39 C         147.4799  142.9737  154.9660 C.3     1  UNL1        0.0949
     40 C         146.3032  142.0451  155.0217 C.2     1  UNL1        0.2266
     41 O         145.2140  142.1521  153.9959 O.2     1  UNL1       -0.2748
     42 N         146.2157  141.0093  156.1032 N.am    1  UNL1       -0.2839
     43 H         146.9305  140.9391  156.7765 H       1  UNL1        0.1549
@<TRIPOS>BOND
     1    39    40    1
     2    40    41    2
     3    40    42   am
     4    42    33    1
     5    33    34   ar
     6    34    35   ar
     7    35    36   ar
     8    36    37   ar
     9    37    27    1
    10    27    28    1
    11    28    29    1
    12    29    30    1
    13    30    26    1
    14    26     1    1
    15     1     2   ar
    16     2     3   ar
    17     3     4   ar
    18     4     8    1
    19     8     9    2
    20     8    10    1
    21    10    11   ar
    22    11    12   ar
    23    12    13   ar
    24    13    14   ar
    25    14    15   ar
    26    15    16   ar
    27    16    17   ar
    28    17    18   ar
    29    18    19    1
    30    19    20   ar
    31    20    21   ar
    32    21    22   ar
    33    22    23    1
    34    22    24   ar
    35    24    25   ar
    36     4     5   ar
    37     5     6   ar
    38     6     7    1
    39    30    31    1
    40    31    32    1
    41    37    38   ar
    42    38    33   ar
    43    32    27    1
    44     6     1   ar
    45    18    10   ar
    46    25    19   ar
    47    17    12   ar
    48    42    43    1
@<TRIPOS>MOLECULE
*****
 43 48 0 0 0
SMALL
GASTEIGER

@<TRIPOS>ATOM
      1 C         141.9062  138.2291  162.2397 C.ar    1  UNL1        0.0214
      2 C         143.2766  138.7603  162.5389 C.ar    1  UNL1       -0.0006
      3 C         143.7487  138.8603  163.9592 C.ar    1  UNL1        0.0031
      4 C         142.8503  138.4290  165.0803 C.ar    1  UNL1        0.0442
      5 C         141.4797  137.8977  164.7810 C.ar    1  UNL1        0.0326
      6 C         141.0077  137.7978  163.3608 C.ar    1  UNL1        0.1375
      7 F         139.6372  137.2665  163.0615 F       1  UNL1       -0.2045
      8 C         143.3223  138.5289  166.5005 C.2     1  UNL1        0.2298
      9 O         144.4491  137.6623  166.9791 O.2     1  UNL1       -0.2833
     10 C         142.6675  139.4956  167.4422 C.ar    1  UNL1        0.1873
     11 N         142.3288  139.2338  168.8799 N.ar    1  UNL1       -0.2235
     12 C         141.6883  140.4701  169.4378 C.ar    1  UNL1        0.0991
     13 C         141.1498  140.7942  170.7998 C.ar    1  UNL1        0.0206
     14 C         140.5542  142.1443  171.0689 C.ar    1  UNL1        0.0016
     15 C         140.4970  143.1702  169.9761 C.ar    1  UNL1        0.0016
     16 C         141.0355  142.8461  168.6141 C.ar    1  UNL1        0.0191
     17 C         141.6312  141.4960  168.3450 C.ar    1  UNL1        0.0830
     18 N         142.2363  140.8937  167.1117 N.ar    1  UNL1       -0.2877
     19 C         142.3843  141.5707  165.7814 C.ar    1  UNL1        0.0656
     20 C         141.2335  141.5941  164.8196 C.ar    1  UNL1        0.0199
     21 C         141.3815  142.2712  163.4893 C.ar    1  UNL1        0.0311
     22 C         142.6803  142.9248  163.1207 C.ar    1  UNL1        0.1402
     23 F         142.8282  143.6019  161.7904 F       1  UNL1       -0.2042
     24 C         143.8311  142.9015  164.0825 C.ar    1  UNL1        0.0311
     25 C         143.6831  142.2244  165.4128 C.ar    1  UNL1        0.0199
     26 C         141.4341  138.1291  160.8194 C.3     1  UNL1        0.1014
     27 C         141.9498  141.6193  158.0261 C.3     1  UNL1        0.0251
     28 C         142.4671  140.2657  157.6385 C.3     1  UNL1        0.0217
     29 C         142.2952  139.1023  158.5696 C.3     1  UNL1        0.0727
     30 N         141.6060  139.2925  159.8883 N.3     1  UNL1       -0.2689
     31 C         141.0887  140.6461  160.2758 C.3     1  UNL1        0.0727
     32 C         141.2606  141.8095  159.3447 C.3     1  UNL1        0.0217
     33 C         141.6040  145.2464  156.4531 C.ar    1  UNL1        0.0500
     34 C         142.4655  145.1095  155.2328 C.ar    1  UNL1        0.0147
     35 C         143.1550  143.8092  154.9436 C.ar    1  UNL1        0.0009
     36 C         142.9831  142.6458  155.8747 C.ar    1  UNL1       -0.0042
     37 C         142.1217  142.7827  157.0950 C.ar    1  UNL1       -0.0212
     38 C         141.4321  144.0830  157.3842 C.ar    1  UNL1        0.0104
     39 C         138.8301  148.0836  156.5326 C.3     1  UNL1        0.0949
     40 C         139.5197  146.7832  156.2434 C.2     1  UNL1        0.2266
     41 O         138.8145  145.7194  155.4554 O.2     1  UNL1       -0.2748
     42 N         140.9144  146.5468  156.7423 N.am    1  UNL1       -0.2839
     43 H         141.3772  147.2450  157.2595 H       1  UNL1        0.1549
@<TRIPOS>BOND
     1    39    40    1
     2    40    41    2
     3    40    42   am
     4    42    33    1
     5    33    34   ar
     6    34    35   ar
     7    35    36   ar
     8    36    37   ar
     9    37    27    1
    10    27    28    1
    11    28    29    1
    12    29    30    1
    13    30    26    1
    14    26     1    1
    15     1     2   ar
    16     2     3   ar
    17     3     4   ar
    18     4     8    1
    19     8     9    2
    20     8    10    1
    21    10    11   ar
    22    11    12   ar
    23    12    13   ar
    24    13    14   ar
    25    14    15   ar
    26    15    16   ar
    27    16    17   ar
    28    17    18   ar
    29    18    19    1
    30    19    20   ar
    31    20    21   ar
    32    21    22   ar
    33    22    23    1
    34    22    24   ar
    35    24    25   ar
    36     4     5   ar
    37     5     6   ar
    38     6     7    1
    39    30    31    1
    40    31    32    1
    41    37    38   ar
    42    38    33   ar
    43    32    27    1
    44     6     1   ar
    45    18    10   ar
    46    25    19   ar
    47    17    12   ar
    48    42    43    1
@<TRIPOS>MOLECULE
*****
 43 48 0 0 0
SMALL
GASTEIGER

@<TRIPOS>ATOM
      1 C         141.9258  138.1409  162.3169 C.ar    1  UNL1        0.0214
      2 C         143.2907  138.6803  162.6265 C.ar    1  UNL1       -0.0006
      3 C         143.7387  138.8142  164.0518 C.ar    1  UNL1        0.0031
      4 C         142.8218  138.4086  165.1675 C.ar    1  UNL1        0.0442
      5 C         141.4568  137.8690  164.8577 C.ar    1  UNL1        0.0326
      6 C         141.0088  137.7352  163.4325 C.ar    1  UNL1        0.1375
      7 F         139.6439  137.1957  163.1228 F       1  UNL1       -0.2045
      8 C         143.2697  138.5424  166.5927 C.2     1  UNL1        0.2298
      9 O         144.3857  137.6851  167.1117 O.2     1  UNL1       -0.2833
     10 C         142.6016  139.5336  167.4989 C.ar    1  UNL1        0.1873
     11 N         142.2105  139.2979  168.9277 N.ar    1  UNL1       -0.2235
     12 C         141.5744  140.5531  169.4473 C.ar    1  UNL1        0.0991
     13 C         140.9969  140.9057  170.7860 C.ar    1  UNL1        0.0206
     14 C         140.4173  142.2698  171.0169 C.ar    1  UNL1        0.0016
     15 C         140.4153  143.2812  169.9092 C.ar    1  UNL1        0.0016
     16 C         140.9929  142.9286  168.5706 C.ar    1  UNL1        0.0191
     17 C         141.5725  141.5645  168.3397 C.ar    1  UNL1        0.0830
     18 N         142.2073  140.9344  167.1355 N.ar    1  UNL1       -0.2877
     19 C         142.4119  141.5901  165.8020 C.ar    1  UNL1        0.0656
     20 C         143.7272  142.2333  165.4764 C.ar    1  UNL1        0.0199
     21 C         143.9317  142.8890  164.1428 C.ar    1  UNL1        0.0311
     22 C         142.8209  142.9015  163.1349 C.ar    1  UNL1        0.1402
     23 F         143.0255  143.5572  161.8014 F       1  UNL1       -0.2042
     24 C         141.5056  142.2583  163.4605 C.ar    1  UNL1        0.0311
     25 C         141.3010  141.6026  164.7940 C.ar    1  UNL1        0.0199
     26 C         141.4778  138.0070  160.8916 C.3     1  UNL1        0.1014
     27 C         143.4005  140.5102  157.6842 C.3     1  UNL1        0.0251
     28 C         143.2473  139.0308  157.4899 C.3     1  UNL1        0.0217
     29 C         142.6063  138.1963  158.5590 C.3     1  UNL1        0.0727
     30 N         142.1187  138.8414  159.8225 N.3     1  UNL1       -0.2689
     31 C         142.2720  140.3208  160.0167 C.3     1  UNL1        0.0727
     32 C         142.9129  141.1552  158.9476 C.3     1  UNL1        0.0217
     33 C         146.0861  141.8855  155.1061 C.ar    1  UNL1        0.0500
     34 C         145.3233  143.0135  154.4769 C.ar    1  UNL1        0.0147
     35 C         143.9196  143.3071  154.9169 C.ar    1  UNL1        0.0009
     36 C         143.2787  142.4726  155.9860 C.ar    1  UNL1       -0.0042
     37 C         144.0414  141.3447  156.6151 C.ar    1  UNL1       -0.0212
     38 C         145.4451  141.0510  156.1752 C.ar    1  UNL1        0.0104
     39 C         150.0424  141.5763  155.1493 C.3     1  UNL1        0.0949
     40 C         148.6387  141.8699  155.5893 C.2     1  UNL1        0.2266
     41 O         148.3842  142.4415  156.9526 O.2     1  UNL1       -0.2748
     42 N         147.4897  141.5919  154.6661 N.am    1  UNL1       -0.2839
     43 H         147.6568  141.2167  153.7713 H       1  UNL1        0.1549
@<TRIPOS>BOND
     1    39    40    1
     2    40    41    2
     3    40    42   am
     4    42    33    1
     5    33    34   ar
     6    34    35   ar
     7    35    36   ar
     8    36    37   ar
     9    37    27    1
    10    27    28    1
    11    28    29    1
    12    29    30    1
    13    30    26    1
    14    26     1    1
    15     1     2   ar
    16     2     3   ar
    17     3     4   ar
    18     4     8    1
    19     8     9    2
    20     8    10    1
    21    10    11   ar
    22    11    12   ar
    23    12    13   ar
    24    13    14   ar
    25    14    15   ar
    26    15    16   ar
    27    16    17   ar
    28    17    18   ar
    29    18    19    1
    30    19    20   ar
    31    20    21   ar
    32    21    22   ar
    33    22    23    1
    34    22    24   ar
    35    24    25   ar
    36     4     5   ar
    37     5     6   ar
    38     6     7    1
    39    30    31    1
    40    31    32    1
    41    37    38   ar
    42    38    33   ar
    43    32    27    1
    44     6     1   ar
    45    18    10   ar
    46    25    19   ar
    47    17    12   ar
    48    42    43    1
@<TRIPOS>MOLECULE
*****
 43 48 0 0 0
SMALL
GASTEIGER

@<TRIPOS>ATOM
      1 C         142.2803  138.2405  162.2652 C.ar    1  UNL1        0.0214
      2 C         143.6134  138.7792  162.6925 C.ar    1  UNL1       -0.0006
      3 C         143.9522  138.8725  164.1508 C.ar    1  UNL1        0.0031
      4 C         142.9579  138.4270  165.1818 C.ar    1  UNL1        0.0442
      5 C         141.6248  137.8883  164.7544 C.ar    1  UNL1        0.0326
      6 C         141.2860  137.7950  163.2962 C.ar    1  UNL1        0.1375
      7 F         139.9528  137.2562  162.8689 F       1  UNL1       -0.2045
      8 C         143.2967  138.5203  166.6400 C.2     1  UNL1        0.2298
      9 O         144.3475  137.6236  167.2246 O.2     1  UNL1       -0.2833
     10 C         142.5847  139.5102  167.5136 C.ar    1  UNL1        0.1873
     11 N         142.1257  139.2733  168.9218 N.ar    1  UNL1       -0.2235
     12 C         141.4641  140.5275  169.4109 C.ar    1  UNL1        0.0991
     13 C         140.8225  140.8787  170.7205 C.ar    1  UNL1        0.0206
     14 C         140.2309  142.2420  170.9240 C.ar    1  UNL1        0.0016
     15 C         140.2809  143.2541  169.8180 C.ar    1  UNL1        0.0016
     16 C         140.9225  142.9028  168.5084 C.ar    1  UNL1        0.0191
     17 C         141.5141  141.5395  168.3049 C.ar    1  UNL1        0.0830
     18 N         142.2067  140.9108  167.1323 N.ar    1  UNL1       -0.2877
     19 C         142.4743  141.5674  165.8105 C.ar    1  UNL1        0.0656
     20 C         141.4174  141.5690  164.7462 C.ar    1  UNL1        0.0199
     21 C         141.6850  142.2257  163.4243 C.ar    1  UNL1        0.0311
     22 C         143.0095  142.8807  163.1668 C.ar    1  UNL1        0.1402
     23 F         143.2771  143.5374  161.8450 F       1  UNL1       -0.2042
     24 C         144.0665  142.8792  164.2311 C.ar    1  UNL1        0.0311
     25 C         143.7989  142.2225  165.5529 C.ar    1  UNL1        0.0199
     26 C         141.9414  138.1472  160.8069 C.3     1  UNL1        0.1014
     27 C         140.8317  141.8563  158.5132 C.3     1  UNL1        0.0251
     28 C         142.1344  141.7945  159.2544 C.3     1  UNL1        0.0217
     29 C         142.5043  140.5581  160.0190 C.3     1  UNL1        0.0727
     30 N         141.5715  139.3836  160.0423 N.3     1  UNL1       -0.2689
     31 C         140.2689  139.4454  159.3012 C.3     1  UNL1        0.0727
     32 C         139.8990  140.6818  158.5366 C.3     1  UNL1        0.0217
     33 C         139.3712  144.2129  155.6736 C.ar    1  UNL1        0.0500
     34 C         139.7219  145.5654  156.2195 C.ar    1  UNL1        0.0147
     35 C         140.4425  145.6814  157.5299 C.ar    1  UNL1        0.0009
     36 C         140.8124  144.4451  158.2945 C.ar    1  UNL1       -0.0042
     37 C         140.4618  143.0927  157.7486 C.ar    1  UNL1       -0.0212
     38 C         139.7411  142.9766  156.4381 C.ar    1  UNL1        0.0104
     39 C         136.4410  143.8015  153.0288 C.3     1  UNL1        0.0949
     40 C         137.1616  143.9176  154.3393 C.2     1  UNL1        0.2266
     41 O         136.3931  143.8543  155.6259 O.2     1  UNL1       -0.2748
     42 N         138.6507  144.0969  154.3631 N.am    1  UNL1       -0.2839
     43 H         139.1550  144.1384  153.5187 H       1  UNL1        0.1549
@<TRIPOS>BOND
     1    39    40    1
     2    40    41    2
     3    40    42   am
     4    42    33    1
     5    33    34   ar
     6    34    35   ar
     7    35    36   ar
     8    36    37   ar
     9    37    27    1
    10    27    28    1
    11    28    29    1
    12    29    30    1
    13    30    26    1
    14    26     1    1
    15     1     2   ar
    16     2     3   ar
    17     3     4   ar
    18     4     8    1
    19     8     9    2
    20     8    10    1
    21    10    11   ar
    22    11    12   ar
    23    12    13   ar
    24    13    14   ar
    25    14    15   ar
    26    15    16   ar
    27    16    17   ar
    28    17    18   ar
    29    18    19    1
    30    19    20   ar
    31    20    21   ar
    32    21    22   ar
    33    22    23    1
    34    22    24   ar
    35    24    25   ar
    36     4     5   ar
    37     5     6   ar
    38     6     7    1
    39    30    31    1
    40    31    32    1
    41    37    38   ar
    42    38    33   ar
    43    32    27    1
    44     6     1   ar
    45    18    10   ar
    46    25    19   ar
    47    17    12   ar
    48    42    43    1
@<TRIPOS>MOLECULE
*****
 43 48 0 0 0
SMALL
GASTEIGER

@<TRIPOS>ATOM
      1 C         141.4294  138.1199  158.8237 C.ar    1  UNL1        0.0214
      2 C         139.9689  138.4617  158.8282 C.ar    1  UNL1       -0.0006
      3 C         139.2454  138.6445  160.1295 C.ar    1  UNL1        0.0031
      4 C         139.9825  138.4855  161.4262 C.ar    1  UNL1        0.0442
      5 C         141.4430  138.1437  161.4216 C.ar    1  UNL1        0.0326
      6 C         142.1665  137.9609  160.1204 C.ar    1  UNL1        0.1375
      7 F         143.6270  137.6191  160.1159 F       1  UNL1       -0.2045
      8 C         139.2590  138.6683  162.7274 C.2     1  UNL1        0.2298
      9 O         138.6479  137.4855  163.4183 O.2     1  UNL1       -0.2833
     10 C         139.1468  140.0340  163.3377 C.ar    1  UNL1        0.1873
     11 N         137.9465  140.9315  163.2756 N.ar    1  UNL1       -0.2235
     12 C         138.2730  142.1941  164.0167 C.ar    1  UNL1        0.0991
     13 C         137.4748  143.4353  164.2852 C.ar    1  UNL1        0.0206
     14 C         138.0786  144.5594  165.0738 C.ar    1  UNL1        0.0016
     15 C         139.4806  144.4421  165.5940 C.ar    1  UNL1        0.0016
     16 C         140.2788  143.2009  165.3255 C.ar    1  UNL1        0.0191
     17 C         139.6750  142.0769  164.5369 C.ar    1  UNL1        0.0830
     18 N         140.2150  140.7419  164.1172 N.ar    1  UNL1       -0.2877
     19 C         141.5831  140.2084  164.4234 C.ar    1  UNL1        0.0656
     20 C         142.7782  140.7449  163.6928 C.ar    1  UNL1        0.0199
     21 C         144.1463  140.2115  163.9989 C.ar    1  UNL1        0.0311
     22 C         144.3193  139.1414  165.0357 C.ar    1  UNL1        0.1402
     23 F         145.6874  138.6080  165.3419 F       1  UNL1       -0.2042
     24 C         143.1243  138.6048  165.7664 C.ar    1  UNL1        0.0311
     25 C         141.7562  139.1383  165.4603 C.ar    1  UNL1        0.0199
     26 C         142.1529  137.9370  157.5224 C.3     1  UNL1        0.1014
     27 C         141.9753  133.9805  155.3860 C.3     1  UNL1        0.0251
     28 C         141.0442  135.0884  154.9914 C.3     1  UNL1        0.0217
     29 C         141.1034  136.4072  155.7035 C.3     1  UNL1        0.0727
     30 N         142.0937  136.6182  156.8103 N.3     1  UNL1       -0.2689
     31 C         143.0248  135.5103  157.2048 C.3     1  UNL1        0.0727
     32 C         142.9656  134.1915  156.4927 C.3     1  UNL1        0.0217
     33 C         140.7718  130.3608  154.2908 C.ar    1  UNL1        0.0500
     34 C         141.7977  130.0240  153.2495 C.ar    1  UNL1        0.0147
     35 C         142.8828  131.0060  152.9205 C.ar    1  UNL1        0.0009
     36 C         142.9420  132.3248  153.6327 C.ar    1  UNL1       -0.0042
     37 C         141.9161  132.6617  154.6738 C.ar    1  UNL1       -0.0212
     38 C         140.8310  131.6796  155.0029 C.ar    1  UNL1        0.0104
     39 C         138.8950  127.2249  155.8380 C.3     1  UNL1        0.0949
     40 C         139.9801  128.2070  155.5090 C.2     1  UNL1        0.2266
     41 O         141.3586  128.0171  156.0692 O.2     1  UNL1       -0.2748
     42 N         139.6868  129.3788  154.6198 N.am    1  UNL1       -0.2839
     43 H         138.7820  129.5034  154.2521 H       1  UNL1        0.1549
@<TRIPOS>BOND
     1    39    40    1
     2    40    41    2
     3    40    42   am
     4    42    33    1
     5    33    34   ar
     6    34    35   ar
     7    35    36   ar
     8    36    37   ar
     9    37    27    1
    10    27    28    1
    11    28    29    1
    12    29    30    1
    13    30    26    1
    14    26     1    1
    15     1     2   ar
    16     2     3   ar
    17     3     4   ar
    18     4     8    1
    19     8     9    2
    20     8    10    1
    21    10    11   ar
    22    11    12   ar
    23    12    13   ar
    24    13    14   ar
    25    14    15   ar
    26    15    16   ar
    27    16    17   ar
    28    17    18   ar
    29    18    19    1
    30    19    20   ar
    31    20    21   ar
    32    21    22   ar
    33    22    23    1
    34    22    24   ar
    35    24    25   ar
    36     4     5   ar
    37     5     6   ar
    38     6     7    1
    39    30    31    1
    40    31    32    1
    41    37    38   ar
    42    38    33   ar
    43    32    27    1
    44     6     1   ar
    45    18    10   ar
    46    25    19   ar
    47    17    12   ar
    48    42    43    1
