@<TRIPOS>MOLECULE
*****
 46 51 0 0 0
SMALL
GASTEIGER

@<TRIPOS>ATOM
      1 C         138.1542  139.7182  164.1433 C.3     1  UNL1        0.0821
      2 C         138.3524  140.1279  165.5726 C.3     1  UNL1        0.0194
      3 C         139.2097  139.0918  166.2371 C.3     1  UNL1        0.0188
      4 C         139.5414  138.0418  165.2184 C.3     1  UNL1        0.0722
      5 N         138.8890  138.4290  163.9244 N.3     1  UNL1       -0.2721
      6 C         137.3605  140.4665  163.1137 C.3     1  UNL1        0.1465
      7 O         137.9665  143.1893  164.2178 O.2     1  UNL1       -0.2655
      8 C         138.3342  142.8550  162.8025 C.ar    1  UNL1        0.2764
      9 C         139.0049  143.8821  161.9393 C.ar    1  UNL1        0.0618
     10 C         139.3079  145.2435  162.4913 C.ar    1  UNL1        0.0255
     11 C         139.9786  146.2706  161.6281 C.ar    1  UNL1        0.0990
     12 N         140.3463  145.9364  160.2128 N.ar    1  UNL1       -0.2423
     13 C         140.0433  144.5749  159.6607 C.ar    1  UNL1        0.1002
     14 C         139.3726  143.5478  160.5240 C.ar    1  UNL1        0.0394
     15 C         139.0696  142.1864  159.9719 C.ar    1  UNL1        0.0847
     16 N         138.3989  141.1593  160.8352 N.ar    1  UNL1       -0.1708
     17 N         138.0312  141.4936  162.2504 N.ar    1  UNL1       -0.2156
     18 C         139.4373  141.8522  158.5567 C.3     1  UNL1        0.0739
     19 C         140.2384  140.6188  158.2612 C.ar    1  UNL1       -0.0161
     20 C         139.5858  139.2694  158.3169 C.ar    1  UNL1       -0.0030
     21 C         140.3869  138.0362  158.0214 C.ar    1  UNL1        0.0111
     22 C         141.8405  138.1524  157.6702 C.ar    1  UNL1        0.0577
     23 CL        142.6416  136.9190  157.3747 Cl      1  UNL1       -0.0822
     24 C         142.4931  139.5018  157.6144 C.ar    1  UNL1        0.0111
     25 C         141.6921  140.7350  157.9099 C.ar    1  UNL1       -0.0030
     26 C         138.9591  137.6616  162.6375 C.3     1  UNL1        0.0721
     27 C         140.0540  137.9471  161.6527 C.3     1  UNL1        0.0177
     28 C         141.4860  137.7194  162.0363 C.3     1  UNL1        0.0061
     29 C         142.5817  138.4360  161.3042 C.3     1  UNL1        0.0264
     30 C         142.7207  139.9241  161.4321 C.ar    1  UNL1       -0.0220
     31 C         143.7981  140.6444  160.6769 C.ar    1  UNL1       -0.0012
     32 C         143.9371  142.1325  160.8048 C.ar    1  UNL1        0.0366
     33 C         142.9987  142.9003  161.6879 C.ar    1  UNL1        0.1385
     34 C         141.9213  142.1799  162.4431 C.ar    1  UNL1        0.0366
     35 C         141.7823  140.6919  162.3152 C.ar    1  UNL1       -0.0012
     36 O         143.1377  144.3883  161.8158 O.3     1  UNL1       -0.4754
     37 C         144.0232  144.9704  162.8774 C.3     1  UNL1        0.2068
     38 C         143.6677  144.8034  164.3251 C.3     1  UNL1        0.0646
     39 C         144.4796  143.8915  165.1964 C.3     1  UNL1        0.0759
     40 N         144.2412  142.4110  165.1602 N.3     1  UNL1       -0.2726
     41 C         145.1886  141.6199  164.3078 C.3     1  UNL1        0.0721
     42 C         145.2158  140.1398  164.0658 C.3     1  UNL1        0.0173
     43 C         144.3023  139.0852  164.6164 C.3     1  UNL1        0.0015
     44 C         143.1359  139.2503  165.5450 C.3     1  UNL1        0.0015
     45 C         142.5950  140.5106  166.1523 C.3     1  UNL1        0.0173
     46 C         143.0868  141.9173  165.9811 C.3     1  UNL1        0.0721
@<TRIPOS>BOND
     1     7     8    2
     2     8     9   ar
     3     9    10   ar
     4    10    11   ar
     5    11    12   ar
     6    12    13   ar
     7    13    14   ar
     8    14    15   ar
     9    15    18    1
    10    18    19    1
    11    19    20   ar
    12    20    21   ar
    13    21    22   ar
    14    22    23    1
    15    22    24   ar
    16    24    25   ar
    17    15    16   ar
    18    16    17   ar
    19    17     6    1
    20     1     6    1
    21     1     2    1
    22     2     3    1
    23     3     4    1
    24     4     5    1
    25     5    26    1
    26    26    27    1
    27    27    28    1
    28    28    29    1
    29    29    30    1
    30    30    31   ar
    31    31    32   ar
    32    32    33   ar
    33    33    36    1
    34    36    37    1
    35    37    38    1
    36    38    39    1
    37    39    40    1
    38    40    41    1
    39    41    42    1
    40    42    43    1
    41    43    44    1
    42    44    45    1
    43    45    46    1
    44    33    34   ar
    45    34    35   ar
    46    17     8   ar
    47     5     1    1
    48    35    30   ar
    49    14     9   ar
    50    25    19   ar
    51    46    40    1
@<TRIPOS>MOLECULE
*****
 46 51 0 0 0
SMALL
GASTEIGER

@<TRIPOS>ATOM
      1 C         142.0104  143.9373  157.1788 C.3     1  UNL1        0.0821
      2 C         142.0259  145.3780  156.7614 C.3     1  UNL1        0.0194
      3 C         140.6375  145.7517  156.3341 C.3     1  UNL1        0.0188
      4 C         139.7638  144.5421  156.4875 C.3     1  UNL1        0.0722
      5 N         140.6124  143.4207  157.0096 N.3     1  UNL1       -0.2721
      6 C         143.1864  143.1513  157.6779 C.3     1  UNL1        0.1465
      7 O         144.1522  140.4624  158.5928 O.2     1  UNL1       -0.2655
      8 C         143.8124  141.5200  159.6007 C.ar    1  UNL1        0.2764
      9 C         143.9555  141.2333  161.0661 C.ar    1  UNL1        0.0618
     10 C         144.4383  139.8888  161.5236 C.ar    1  UNL1        0.0255
     11 C         144.5814  139.6020  162.9889 C.ar    1  UNL1        0.0990
     12 N         144.2416  140.6597  163.9968 N.ar    1  UNL1       -0.2423
     13 C         143.7587  142.0042  163.5394 C.ar    1  UNL1        0.1002
     14 C         143.6156  142.2910  162.0740 C.ar    1  UNL1        0.0394
     15 C         143.1328  143.6354  161.6165 C.ar    1  UNL1        0.0847
     16 N         142.9897  143.9222  160.1512 N.ar    1  UNL1       -0.1708
     17 N         143.3295  142.8646  159.1433 N.ar    1  UNL1       -0.2156
     18 C         142.7930  144.6930  162.6244 C.3     1  UNL1        0.0739
     19 C         141.4398  144.7052  163.2716 C.ar    1  UNL1       -0.0161
     20 C         141.2904  144.2907  164.7054 C.ar    1  UNL1       -0.0030
     21 C         139.9372  144.3029  165.3525 C.ar    1  UNL1        0.0111
     22 C         138.7335  144.7297  164.5658 C.ar    1  UNL1        0.0577
     23 CL        137.3803  144.7419  165.2130 Cl      1  UNL1       -0.0822
     24 C         138.8829  145.1442  163.1321 C.ar    1  UNL1        0.0111
     25 C         140.2360  145.1320  162.4850 C.ar    1  UNL1       -0.0030
     26 C         140.1449  142.0274  157.3097 C.3     1  UNL1        0.0721
     27 C         140.0963  141.5418  158.7281 C.3     1  UNL1        0.0177
     28 C         139.6449  142.4640  159.8215 C.3     1  UNL1        0.0061
     29 C         138.4822  142.0850  160.6902 C.3     1  UNL1        0.0264
     30 C         138.7104  141.6956  162.1207 C.ar    1  UNL1       -0.0220
     31 C         140.0971  141.3866  162.6020 C.ar    1  UNL1       -0.0012
     32 C         140.3252  140.9973  164.0325 C.ar    1  UNL1        0.0366
     33 C         139.1666  140.9170  164.9818 C.ar    1  UNL1        0.1385
     34 C         137.7800  141.2260  164.5006 C.ar    1  UNL1        0.0366
     35 C         137.5518  141.6153  163.0701 C.ar    1  UNL1       -0.0012
     36 O         139.3948  140.5277  166.4123 O.3     1  UNL1       -0.4754
     37 C         138.9152  139.1976  166.9132 C.3     1  UNL1        0.2068
     38 C         138.1627  138.2783  165.9975 C.3     1  UNL1        0.0646
     39 C         138.8996  137.2354  165.2105 C.3     1  UNL1        0.0759
     40 N         139.3866  137.5455  163.8260 N.3     1  UNL1       -0.2726
     41 C         138.3248  137.8929  162.8252 C.3     1  UNL1        0.0721
     42 C         138.4851  138.2478  161.3766 C.3     1  UNL1        0.0173
     43 C         139.7469  138.3429  160.5711 C.3     1  UNL1        0.0015
     44 C         141.1600  138.1066  161.0153 C.3     1  UNL1        0.0015
     45 C         141.6603  137.7168  162.3746 C.3     1  UNL1        0.0173
     46 C         140.8712  137.4671  163.6255 C.3     1  UNL1        0.0721
@<TRIPOS>BOND
     1     7     8    2
     2     8     9   ar
     3     9    10   ar
     4    10    11   ar
     5    11    12   ar
     6    12    13   ar
     7    13    14   ar
     8    14    15   ar
     9    15    18    1
    10    18    19    1
    11    19    20   ar
    12    20    21   ar
    13    21    22   ar
    14    22    23    1
    15    22    24   ar
    16    24    25   ar
    17    15    16   ar
    18    16    17   ar
    19    17     6    1
    20     1     6    1
    21     1     2    1
    22     2     3    1
    23     3     4    1
    24     4     5    1
    25     5    26    1
    26    26    27    1
    27    27    28    1
    28    28    29    1
    29    29    30    1
    30    30    31   ar
    31    31    32   ar
    32    32    33   ar
    33    33    36    1
    34    36    37    1
    35    37    38    1
    36    38    39    1
    37    39    40    1
    38    40    41    1
    39    41    42    1
    40    42    43    1
    41    43    44    1
    42    44    45    1
    43    45    46    1
    44    33    34   ar
    45    34    35   ar
    46    17     8   ar
    47     5     1    1
    48    35    30   ar
    49    14     9   ar
    50    25    19   ar
    51    46    40    1
@<TRIPOS>MOLECULE
*****
 46 51 0 0 0
SMALL
GASTEIGER

@<TRIPOS>ATOM
      1 C         138.5983  138.4651  163.8330 C.3     1  UNL1        0.0821
      2 C         138.9859  137.6191  162.6565 C.3     1  UNL1        0.0194
      3 C         138.7666  138.4273  161.4121 C.3     1  UNL1        0.0188
      4 C         138.2434  139.7729  161.8193 C.3     1  UNL1        0.0722
      5 N         138.1394  139.7962  163.3155 N.3     1  UNL1       -0.2721
      6 C         138.6589  138.0525  165.2738 C.3     1  UNL1        0.1465
      7 O         137.4077  138.7245  167.9163 O.2     1  UNL1       -0.2655
      8 C         138.7802  139.2314  167.5859 C.ar    1  UNL1        0.2764
      9 C         139.5271  140.0743  168.5766 C.ar    1  UNL1        0.0618
     10 C         138.9015  140.4102  169.8979 C.ar    1  UNL1        0.0255
     11 C         139.6485  141.2531  170.8887 C.ar    1  UNL1        0.0990
     12 N         141.0210  141.7600  170.5582 N.ar    1  UNL1       -0.2423
     13 C         141.6466  141.4241  169.2369 C.ar    1  UNL1        0.1002
     14 C         140.8997  140.5812  168.2461 C.ar    1  UNL1        0.0394
     15 C         141.5252  140.2452  166.9248 C.ar    1  UNL1        0.0847
     16 N         140.7783  139.4023  165.9341 N.ar    1  UNL1       -0.1708
     17 N         139.4058  138.8954  166.2645 N.ar    1  UNL1       -0.2156
     18 C         142.8977  140.7521  166.5944 C.3     1  UNL1        0.0739
     19 C         143.0600  141.9882  165.7601 C.ar    1  UNL1       -0.0161
     20 C         142.1680  142.2162  164.5759 C.ar    1  UNL1       -0.0030
     21 C         142.3303  143.4522  163.7417 C.ar    1  UNL1        0.0111
     22 C         143.3846  144.4602  164.0917 C.ar    1  UNL1        0.0577
     23 CL        143.5469  145.6962  163.2574 Cl      1  UNL1       -0.0822
     24 C         144.2766  144.2321  165.2758 C.ar    1  UNL1        0.0111
     25 C         144.1143  142.9961  166.1100 C.ar    1  UNL1       -0.0030
     26 C         137.6606  140.9484  164.1481 C.3     1  UNL1        0.0721
     27 C         138.5872  142.0869  164.4568 C.3     1  UNL1        0.0177
     28 C         138.0331  143.4576  164.7094 C.3     1  UNL1        0.0061
     29 C         137.8000  144.3955  163.5622 C.3     1  UNL1        0.0264
     30 C         138.7358  144.3937  162.3899 C.ar    1  UNL1       -0.0220
     31 C         138.6720  143.2855  161.3810 C.ar    1  UNL1       -0.0012
     32 C         139.6078  143.2837  160.2087 C.ar    1  UNL1        0.0366
     33 C         140.6075  144.3900  160.0453 C.ar    1  UNL1        0.1385
     34 C         140.6713  145.4981  161.0542 C.ar    1  UNL1        0.0366
     35 C         139.7355  145.5000  162.2264 C.ar    1  UNL1       -0.0012
     36 O         141.5432  144.3881  158.8730 O.3     1  UNL1       -0.4754
     37 C         141.9335  143.0919  158.2270 C.3     1  UNL1        0.2068
     38 C         142.6224  142.0302  159.0321 C.3     1  UNL1        0.0646
     39 C         143.8288  142.3762  159.8535 C.3     1  UNL1        0.0759
     40 N         144.1638  141.5677  161.0717 N.3     1  UNL1       -0.2726
     41 C         143.4014  140.2860  161.2321 C.3     1  UNL1        0.0721
     42 C         143.5037  139.2678  162.3289 C.3     1  UNL1        0.0173
     43 C         144.3938  139.2800  163.5362 C.3     1  UNL1        0.0015
     44 C         145.4014  140.3133  163.9448 C.3     1  UNL1        0.0015
     45 C         145.7678  141.5896  163.2472 C.3     1  UNL1        0.0173
     46 C         145.2170  142.1480  161.9686 C.3     1  UNL1        0.0721
@<TRIPOS>BOND
     1     7     8    2
     2     8     9   ar
     3     9    10   ar
     4    10    11   ar
     5    11    12   ar
     6    12    13   ar
     7    13    14   ar
     8    14    15   ar
     9    15    18    1
    10    18    19    1
    11    19    20   ar
    12    20    21   ar
    13    21    22   ar
    14    22    23    1
    15    22    24   ar
    16    24    25   ar
    17    15    16   ar
    18    16    17   ar
    19    17     6    1
    20     1     6    1
    21     1     2    1
    22     2     3    1
    23     3     4    1
    24     4     5    1
    25     5    26    1
    26    26    27    1
    27    27    28    1
    28    28    29    1
    29    29    30    1
    30    30    31   ar
    31    31    32   ar
    32    32    33   ar
    33    33    36    1
    34    36    37    1
    35    37    38    1
    36    38    39    1
    37    39    40    1
    38    40    41    1
    39    41    42    1
    40    42    43    1
    41    43    44    1
    42    44    45    1
    43    45    46    1
    44    33    34   ar
    45    34    35   ar
    46    17     8   ar
    47     5     1    1
    48    35    30   ar
    49    14     9   ar
    50    25    19   ar
    51    46    40    1
@<TRIPOS>MOLECULE
*****
 46 51 0 0 0
SMALL
GASTEIGER

@<TRIPOS>ATOM
      1 C         142.1126  139.9913  157.5606 C.3     1  UNL1        0.0821
      2 C         141.9366  139.9971  156.0710 C.3     1  UNL1        0.0194
      3 C         141.5348  138.6157  155.6464 C.3     1  UNL1        0.0188
      4 C         141.4625  137.7562  156.8736 C.3     1  UNL1        0.0722
      5 N         141.8196  138.6064  158.0566 N.3     1  UNL1       -0.2721
      6 C         142.5117  141.1645  158.4058 C.3     1  UNL1        0.1465
      7 O         142.8642  144.0290  159.2248 O.2     1  UNL1       -0.2655
      8 C         141.6818  143.2483  159.7170 C.ar    1  UNL1        0.2764
      9 C         140.6756  143.8998  160.6187 C.ar    1  UNL1        0.0618
     10 C         140.8518  145.3320  161.0282 C.ar    1  UNL1        0.0255
     11 C         139.8456  145.9835  161.9299 C.ar    1  UNL1        0.0990
     12 N         138.6632  145.2029  162.4222 N.ar    1  UNL1       -0.2423
     13 C         138.4869  143.7706  162.0127 C.ar    1  UNL1        0.1002
     14 C         139.4931  143.1191  161.1110 C.ar    1  UNL1        0.0394
     15 C         139.3168  141.6869  160.7015 C.ar    1  UNL1        0.0847
     16 N         140.3230  141.0354  159.7997 N.ar    1  UNL1       -0.1708
     17 N         141.5055  141.8161  159.3075 N.ar    1  UNL1       -0.2156
     18 C         138.1344  140.9062  161.1937 C.3     1  UNL1        0.0739
     19 C         138.2821  139.9791  162.3636 C.ar    1  UNL1       -0.0161
     20 C         138.0649  140.4896  163.7572 C.ar    1  UNL1       -0.0030
     21 C         138.2126  139.5625  164.9271 C.ar    1  UNL1        0.0111
     22 C         138.5775  138.1249  164.7033 C.ar    1  UNL1        0.0577
     23 CL        138.7252  137.1977  165.8733 Cl      1  UNL1       -0.0822
     24 C         138.7947  137.6144  163.3097 C.ar    1  UNL1        0.0111
     25 C         138.6470  138.5415  162.1399 C.ar    1  UNL1       -0.0030
     26 C         141.8742  138.1514  159.4849 C.3     1  UNL1        0.0721
     27 C         143.1968  137.8561  160.1280 C.3     1  UNL1        0.0177
     28 C         143.9105  138.9254  160.9007 C.3     1  UNL1        0.0061
     29 C         143.1434  139.8163  161.8323 C.3     1  UNL1        0.0264
     30 C         143.1716  139.5585  163.3097 C.ar    1  UNL1       -0.0220
     31 C         141.8971  139.5848  164.1002 C.ar    1  UNL1       -0.0012
     32 C         141.9253  139.3270  165.5776 C.ar    1  UNL1        0.0366
     33 C         143.2282  139.0430  166.2646 C.ar    1  UNL1        0.1385
     34 C         144.5027  139.0168  165.4742 C.ar    1  UNL1        0.0366
     35 C         144.4745  139.2746  163.9968 C.ar    1  UNL1       -0.0012
     36 O         143.2564  138.7852  167.7420 O.3     1  UNL1       -0.4754
     37 C         142.3032  139.5072  168.6476 C.3     1  UNL1        0.2068
     38 C         142.8053  140.5925  169.5531 C.3     1  UNL1        0.0646
     39 C         142.7792  142.0213  169.0975 C.3     1  UNL1        0.0759
     40 N         142.3641  142.3539  167.6950 N.3     1  UNL1       -0.2726
     41 C         143.4817  142.5354  166.7112 C.3     1  UNL1        0.0721
     42 C         143.3976  142.8688  165.2511 C.3     1  UNL1        0.0173
     43 C         142.1750  143.1031  164.4143 C.3     1  UNL1        0.0015
     44 C         140.7346  143.0619  164.8308 C.3     1  UNL1        0.0015
     45 C         140.1611  142.7761  166.1870 C.3     1  UNL1        0.0173
     46 C         140.8862  142.4611  167.4617 C.3     1  UNL1        0.0721
@<TRIPOS>BOND
     1     7     8    2
     2     8     9   ar
     3     9    10   ar
     4    10    11   ar
     5    11    12   ar
     6    12    13   ar
     7    13    14   ar
     8    14    15   ar
     9    15    18    1
    10    18    19    1
    11    19    20   ar
    12    20    21   ar
    13    21    22   ar
    14    22    23    1
    15    22    24   ar
    16    24    25   ar
    17    15    16   ar
    18    16    17   ar
    19    17     6    1
    20     1     6    1
    21     1     2    1
    22     2     3    1
    23     3     4    1
    24     4     5    1
    25     5    26    1
    26    26    27    1
    27    27    28    1
    28    28    29    1
    29    29    30    1
    30    30    31   ar
    31    31    32   ar
    32    32    33   ar
    33    33    36    1
    34    36    37    1
    35    37    38    1
    36    38    39    1
    37    39    40    1
    38    40    41    1
    39    41    42    1
    40    42    43    1
    41    43    44    1
    42    44    45    1
    43    45    46    1
    44    33    34   ar
    45    34    35   ar
    46    17     8   ar
    47     5     1    1
    48    35    30   ar
    49    14     9   ar
    50    25    19   ar
    51    46    40    1
@<TRIPOS>MOLECULE
*****
 46 51 0 0 0
SMALL
GASTEIGER

@<TRIPOS>ATOM
      1 C         139.2254  143.9246  161.0369 C.3     1  UNL1        0.0821
      2 C         138.1874  142.8802  161.3230 C.3     1  UNL1        0.0194
      3 C         137.7789  143.0141  162.7601 C.3     1  UNL1        0.0188
      4 C         138.5646  144.1411  163.3623 C.3     1  UNL1        0.0722
      5 N         139.4585  144.7039  162.2973 N.3     1  UNL1       -0.2721
      6 C         139.9100  144.1501  159.7215 C.3     1  UNL1        0.1465
      7 O         139.7392  142.5028  157.2201 O.2     1  UNL1       -0.2655
      8 C         140.9770  142.4556  158.0661 C.ar    1  UNL1        0.2764
      9 C         142.1293  141.5848  157.6613 C.ar    1  UNL1        0.0618
     10 C         142.0440  140.7612  156.4106 C.ar    1  UNL1        0.0255
     11 C         143.1963  139.8904  156.0059 C.ar    1  UNL1        0.0990
     12 N         144.4341  139.8433  156.8519 N.ar    1  UNL1       -0.2423
     13 C         144.5195  140.6669  158.1027 C.ar    1  UNL1        0.1002
     14 C         143.3671  141.5377  158.5074 C.ar    1  UNL1        0.0394
     15 C         143.4525  142.3614  159.7581 C.ar    1  UNL1        0.0847
     16 N         142.3001  143.2321  160.1628 N.ar    1  UNL1       -0.1708
     17 N         141.0624  143.2793  159.3168 N.ar    1  UNL1       -0.2156
     18 C         144.6902  142.3142  160.6041 C.3     1  UNL1        0.0739
     19 C         144.7403  141.4250  161.8111 C.ar    1  UNL1       -0.0161
     20 C         145.4808  141.8672  163.0382 C.ar    1  UNL1       -0.0030
     21 C         145.5309  140.9780  164.2452 C.ar    1  UNL1        0.0111
     22 C         144.8405  139.6465  164.2249 C.ar    1  UNL1        0.0577
     23 CL        144.8906  138.7572  165.4319 Cl      1  UNL1       -0.0822
     24 C         144.1000  139.2042  162.9977 C.ar    1  UNL1        0.0111
     25 C         144.0499  140.0935  161.7908 C.ar    1  UNL1       -0.0030
     26 C         140.4172  145.8454  162.4635 C.3     1  UNL1        0.0721
     27 C         141.4044  145.8375  163.5929 C.3     1  UNL1        0.0177
     28 C         142.7181  145.1309  163.4358 C.3     1  UNL1        0.0061
     29 C         143.0160  143.9105  164.2554 C.3     1  UNL1        0.0264
     30 C         141.9212  142.9364  164.5756 C.ar    1  UNL1       -0.0220
     31 C         141.2201  143.0047  165.8998 C.ar    1  UNL1       -0.0012
     32 C         140.1253  142.0306  166.2200 C.ar    1  UNL1        0.0366
     33 C         139.7315  140.9882  165.2159 C.ar    1  UNL1        0.1385
     34 C         140.4326  140.9199  163.8916 C.ar    1  UNL1        0.0366
     35 C         141.5274  141.8940  163.5714 C.ar    1  UNL1       -0.0012
     36 O         138.6367  140.0141  165.5361 O.3     1  UNL1       -0.4754
     37 C         138.9771  138.6200  165.9724 C.3     1  UNL1        0.2068
     38 C         138.8142  137.4745  165.0178 C.3     1  UNL1        0.0646
     39 C         139.8152  137.2643  163.9207 C.3     1  UNL1        0.0759
     40 N         139.6214  137.9304  162.5908 N.3     1  UNL1       -0.2726
     41 C         140.8387  138.0074  161.7179 C.3     1  UNL1        0.0721
     42 C         140.9712  138.6045  160.3481 C.3     1  UNL1        0.0173
     43 C         139.9190  139.2720  159.5132 C.3     1  UNL1        0.0015
     44 C         138.4745  139.5073  159.8416 C.3     1  UNL1        0.0015
     45 C         137.7254  139.1333  161.0861 C.3     1  UNL1        0.0173
     46 C         138.2357  138.4315  162.3096 C.3     1  UNL1        0.0721
@<TRIPOS>BOND
     1     7     8    2
     2     8     9   ar
     3     9    10   ar
     4    10    11   ar
     5    11    12   ar
     6    12    13   ar
     7    13    14   ar
     8    14    15   ar
     9    15    18    1
    10    18    19    1
    11    19    20   ar
    12    20    21   ar
    13    21    22   ar
    14    22    23    1
    15    22    24   ar
    16    24    25   ar
    17    15    16   ar
    18    16    17   ar
    19    17     6    1
    20     1     6    1
    21     1     2    1
    22     2     3    1
    23     3     4    1
    24     4     5    1
    25     5    26    1
    26    26    27    1
    27    27    28    1
    28    28    29    1
    29    29    30    1
    30    30    31   ar
    31    31    32   ar
    32    32    33   ar
    33    33    36    1
    34    36    37    1
    35    37    38    1
    36    38    39    1
    37    39    40    1
    38    40    41    1
    39    41    42    1
    40    42    43    1
    41    43    44    1
    42    44    45    1
    43    45    46    1
    44    33    34   ar
    45    34    35   ar
    46    17     8   ar
    47     5     1    1
    48    35    30   ar
    49    14     9   ar
    50    25    19   ar
    51    46    40    1
@<TRIPOS>MOLECULE
*****
 46 51 0 0 0
SMALL
GASTEIGER

@<TRIPOS>ATOM
      1 C         140.3269  145.0243  158.7295 C.3     1  UNL1        0.0821
      2 C         140.8383  145.9223  157.6423 C.3     1  UNL1        0.0194
      3 C         140.3249  145.4028  156.3321 C.3     1  UNL1        0.0188
      4 C         139.4962  144.1836  156.6096 C.3     1  UNL1        0.0722
      5 N         139.4975  143.9497  158.0912 N.3     1  UNL1       -0.2721
      6 C         140.5975  145.1745  160.1972 C.3     1  UNL1        0.1465
      7 O         141.1893  145.5333  163.1163 O.2     1  UNL1       -0.2655
      8 C         142.0006  144.5720  162.2992 C.ar    1  UNL1        0.2764
      9 C         143.1078  143.7901  162.9416 C.ar    1  UNL1        0.0618
     10 C         143.4037  143.9695  164.4011 C.ar    1  UNL1        0.0255
     11 C         144.5110  143.1876  165.0435 C.ar    1  UNL1        0.0990
     12 N         145.3223  142.2264  164.2264 N.ar    1  UNL1       -0.2423
     13 C         145.0264  142.0469  162.7668 C.ar    1  UNL1        0.1002
     14 C         143.9192  142.8288  162.1244 C.ar    1  UNL1        0.0394
     15 C         143.6232  142.6495  160.6649 C.ar    1  UNL1        0.0847
     16 N         142.5160  143.4313  160.0225 N.ar    1  UNL1       -0.1708
     17 N         141.7047  144.3926  160.8396 N.ar    1  UNL1       -0.2156
     18 C         144.4346  141.6882  159.8478 C.3     1  UNL1        0.0739
     19 C         143.7637  140.5361  159.1603 C.ar    1  UNL1       -0.0161
     20 C         143.5396  139.2496  159.8983 C.ar    1  UNL1       -0.0030
     21 C         142.8688  138.0976  159.2108 C.ar    1  UNL1        0.0111
     22 C         142.4221  138.2320  157.7852 C.ar    1  UNL1        0.0577
     23 CL        141.7513  137.0798  157.0976 Cl      1  UNL1       -0.0822
     24 C         142.6462  139.5184  157.0471 C.ar    1  UNL1        0.0111
     25 C         143.3170  140.6704  157.7346 C.ar    1  UNL1       -0.0030
     26 C         138.7930  142.8366  158.8087 C.3     1  UNL1        0.0721
     27 C         139.2988  141.4295  158.6903 C.3     1  UNL1        0.0177
     28 C         140.1799  140.8566  159.7605 C.3     1  UNL1        0.0061
     29 C         139.7073  139.6899  160.5763 C.3     1  UNL1        0.0264
     30 C         140.4335  139.3099  161.8326 C.ar    1  UNL1       -0.0220
     31 C         141.2952  140.3171  162.5347 C.ar    1  UNL1       -0.0012
     32 C         142.0215  139.9370  163.7909 C.ar    1  UNL1        0.0366
     33 C         141.8861  138.5497  164.3450 C.ar    1  UNL1        0.1385
     34 C         141.0244  137.5425  163.6429 C.ar    1  UNL1        0.0366
     35 C         140.2981  137.9226  162.3867 C.ar    1  UNL1       -0.0012
     36 O         142.6123  138.1696  165.6012 O.3     1  UNL1       -0.4754
     37 C         143.1123  139.2358  166.5303 C.3     1  UNL1        0.2068
     38 C         142.5865  139.3154  167.9328 C.3     1  UNL1        0.0646
     39 C         141.3405  140.0982  168.2235 C.3     1  UNL1        0.0759
     40 N         140.4662  140.5622  167.0964 N.3     1  UNL1       -0.2726
     41 C         140.7539  141.9384  166.5738 C.3     1  UNL1        0.0721
     42 C         140.0663  142.6811  165.4666 C.3     1  UNL1        0.0173
     43 C         138.9212  142.2308  164.6087 C.3     1  UNL1        0.0015
     44 C         138.1809  140.9268  164.6460 C.3     1  UNL1        0.0015
     45 C         138.4028  139.7509  165.5505 C.3     1  UNL1        0.0173
     46 C         139.4198  139.5886  166.6410 C.3     1  UNL1        0.0721
@<TRIPOS>BOND
     1     7     8    2
     2     8     9   ar
     3     9    10   ar
     4    10    11   ar
     5    11    12   ar
     6    12    13   ar
     7    13    14   ar
     8    14    15   ar
     9    15    18    1
    10    18    19    1
    11    19    20   ar
    12    20    21   ar
    13    21    22   ar
    14    22    23    1
    15    22    24   ar
    16    24    25   ar
    17    15    16   ar
    18    16    17   ar
    19    17     6    1
    20     1     6    1
    21     1     2    1
    22     2     3    1
    23     3     4    1
    24     4     5    1
    25     5    26    1
    26    26    27    1
    27    27    28    1
    28    28    29    1
    29    29    30    1
    30    30    31   ar
    31    31    32   ar
    32    32    33   ar
    33    33    36    1
    34    36    37    1
    35    37    38    1
    36    38    39    1
    37    39    40    1
    38    40    41    1
    39    41    42    1
    40    42    43    1
    41    43    44    1
    42    44    45    1
    43    45    46    1
    44    33    34   ar
    45    34    35   ar
    46    17     8   ar
    47     5     1    1
    48    35    30   ar
    49    14     9   ar
    50    25    19   ar
    51    46    40    1
@<TRIPOS>MOLECULE
*****
 46 51 0 0 0
SMALL
GASTEIGER

@<TRIPOS>ATOM
      1 C         139.7824  141.3269  156.8804 C.3     1  UNL1        0.0821
      2 C         139.7806  142.5330  155.9886 C.3     1  UNL1        0.0194
      3 C         138.4933  143.2706  156.2092 C.3     1  UNL1        0.0188
      4 C         137.6994  142.5204  157.2374 C.3     1  UNL1        0.0722
      5 N         138.4962  141.3191  157.6522 N.3     1  UNL1       -0.2721
      6 C         140.8780  140.3075  156.9824 C.3     1  UNL1        0.1465
      7 O         142.7689  142.5243  157.6968 O.2     1  UNL1       -0.2655
      8 C         142.6488  141.3244  158.5888 C.ar    1  UNL1        0.2764
      9 C         143.4741  141.2329  159.8380 C.ar    1  UNL1        0.0618
     10 C         144.4195  142.3413  160.1952 C.ar    1  UNL1        0.0255
     11 C         145.2448  142.2497  161.4444 C.ar    1  UNL1        0.0990
     12 N         145.1247  141.0498  162.3364 N.ar    1  UNL1       -0.2423
     13 C         144.1792  139.9414  161.9792 C.ar    1  UNL1        0.1002
     14 C         143.3539  140.0329  160.7300 C.ar    1  UNL1        0.0394
     15 C         142.4084  138.9245  160.3729 C.ar    1  UNL1        0.0847
     16 N         141.5831  139.0161  159.1237 N.ar    1  UNL1       -0.1708
     17 N         141.7033  140.2160  158.2316 N.ar    1  UNL1       -0.2156
     18 C         142.2883  137.7246  161.2649 C.3     1  UNL1        0.0739
     19 C         141.3152  137.7331  162.4064 C.ar    1  UNL1       -0.0161
     20 C         141.8172  137.7575  163.8197 C.ar    1  UNL1       -0.0030
     21 C         140.8441  137.7660  164.9612 C.ar    1  UNL1        0.0111
     22 C         139.3690  137.7501  164.6894 C.ar    1  UNL1        0.0577
     23 CL        138.3959  137.7586  165.8309 Cl      1  UNL1       -0.0822
     24 C         138.8670  137.7257  163.2761 C.ar    1  UNL1        0.0111
     25 C         139.8401  137.7172  162.1346 C.ar    1  UNL1       -0.0030
     26 C         138.0798  140.2906  158.6615 C.3     1  UNL1        0.0721
     27 C         138.5365  140.4093  160.0854 C.3     1  UNL1        0.0177
     28 C         137.9286  141.4446  160.9843 C.3     1  UNL1        0.0061
     29 C         137.7948  141.1766  162.4541 C.3     1  UNL1        0.0264
     30 C         138.9982  141.2653  163.3452 C.ar    1  UNL1       -0.0220
     31 C         138.8245  141.3927  164.8296 C.ar    1  UNL1       -0.0012
     32 C         140.0279  141.4814  165.7207 C.ar    1  UNL1        0.0366
     33 C         141.4050  141.4426  165.1274 C.ar    1  UNL1        0.1385
     34 C         141.5787  141.3152  163.6430 C.ar    1  UNL1        0.0366
     35 C         140.3753  141.2265  162.7519 C.ar    1  UNL1       -0.0012
     36 O         142.6084  141.5313  166.0185 O.3     1  UNL1       -0.4754
     37 C         143.3654  142.8214  166.1302 C.3     1  UNL1        0.2068
     38 C         144.0733  143.3818  164.9323 C.3     1  UNL1        0.0646
     39 C         143.5931  144.6573  164.3060 C.3     1  UNL1        0.0759
     40 N         142.3152  144.6728  163.5208 N.3     1  UNL1       -0.2726
     41 C         142.4601  144.4960  162.0384 C.3     1  UNL1        0.0721
     42 C         141.3870  144.4657  160.9907 C.3     1  UNL1        0.0173
     43 C         139.9039  144.6047  161.1668 C.3     1  UNL1        0.0015
     44 C         139.1276  144.8084  162.4341 C.3     1  UNL1        0.0015
     45 C         139.6427  144.9233  163.8381 C.3     1  UNL1        0.0173
     46 C         141.0613  144.8630  164.3219 C.3     1  UNL1        0.0721
@<TRIPOS>BOND
     1     7     8    2
     2     8     9   ar
     3     9    10   ar
     4    10    11   ar
     5    11    12   ar
     6    12    13   ar
     7    13    14   ar
     8    14    15   ar
     9    15    18    1
    10    18    19    1
    11    19    20   ar
    12    20    21   ar
    13    21    22   ar
    14    22    23    1
    15    22    24   ar
    16    24    25   ar
    17    15    16   ar
    18    16    17   ar
    19    17     6    1
    20     1     6    1
    21     1     2    1
    22     2     3    1
    23     3     4    1
    24     4     5    1
    25     5    26    1
    26    26    27    1
    27    27    28    1
    28    28    29    1
    29    29    30    1
    30    30    31   ar
    31    31    32   ar
    32    32    33   ar
    33    33    36    1
    34    36    37    1
    35    37    38    1
    36    38    39    1
    37    39    40    1
    38    40    41    1
    39    41    42    1
    40    42    43    1
    41    43    44    1
    42    44    45    1
    43    45    46    1
    44    33    34   ar
    45    34    35   ar
    46    17     8   ar
    47     5     1    1
    48    35    30   ar
    49    14     9   ar
    50    25    19   ar
    51    46    40    1
@<TRIPOS>MOLECULE
*****
 46 51 0 0 0
SMALL
GASTEIGER

@<TRIPOS>ATOM
      1 C         142.6635  138.1910  163.3300 C.3     1  UNL1        0.0821
      2 C         142.0100  137.8033  162.0368 C.3     1  UNL1        0.0194
      3 C         142.8863  138.2755  160.9147 C.3     1  UNL1        0.0188
      4 C         144.0816  138.9550  161.5145 C.3     1  UNL1        0.0722
      5 N         143.9439  138.9028  163.0072 N.3     1  UNL1       -0.2721
      6 C         142.1304  137.9154  164.7047 C.3     1  UNL1        0.1465
      7 O         143.6563  138.4062  167.2406 O.2     1  UNL1       -0.2655
      8 C         142.5095  139.2994  166.8705 C.ar    1  UNL1        0.2764
      9 C         142.1256  140.4381  167.7683 C.ar    1  UNL1        0.0618
     10 C         142.8885  140.6835  169.0363 C.ar    1  UNL1        0.0255
     11 C         142.5046  141.8222  169.9341 C.ar    1  UNL1        0.0990
     12 N         141.3579  142.7154  169.5640 N.ar    1  UNL1       -0.2423
     13 C         140.5949  142.4700  168.2960 C.ar    1  UNL1        0.1002
     14 C         140.9788  141.3313  167.3982 C.ar    1  UNL1        0.0394
     15 C         140.2158  141.0859  166.1303 C.ar    1  UNL1        0.0847
     16 N         140.5997  139.9472  165.2324 N.ar    1  UNL1       -0.1708
     17 N         141.7465  139.0540  165.6025 N.ar    1  UNL1       -0.2156
     18 C         139.0691  141.9791  165.7602 C.3     1  UNL1        0.0739
     19 C         139.2647  143.0718  164.7513 C.ar    1  UNL1       -0.0161
     20 C         140.6431  143.5880  164.4626 C.ar    1  UNL1       -0.0030
     21 C         140.8387  144.6807  163.4538 C.ar    1  UNL1        0.0111
     22 C         139.6559  145.2572  162.7337 C.ar    1  UNL1        0.0577
     23 CL        139.8515  146.3499  161.7248 Cl      1  UNL1       -0.0822
     24 C         138.2775  144.7410  163.0224 C.ar    1  UNL1        0.0111
     25 C         138.0819  143.6483  164.0312 C.ar    1  UNL1       -0.0030
     26 C         144.9159  139.4638  164.0024 C.3     1  UNL1        0.0721
     27 C         144.7990  140.8935  164.4410 C.3     1  UNL1        0.0177
     28 C         145.2884  141.9945  163.5477 C.3     1  UNL1        0.0061
     29 C         144.3054  142.8803  162.8414 C.3     1  UNL1        0.0264
     30 C         143.8275  142.5227  161.4653 C.ar    1  UNL1       -0.0220
     31 C         142.3843  142.1836  161.2370 C.ar    1  UNL1       -0.0012
     32 C         141.9064  141.8260  159.8609 C.ar    1  UNL1        0.0366
     33 C         142.8717  141.8075  158.7129 C.ar    1  UNL1        0.1385
     34 C         144.3149  142.1466  158.9412 C.ar    1  UNL1        0.0366
     35 C         144.7928  142.5042  160.3173 C.ar    1  UNL1       -0.0012
     36 O         142.3938  141.4498  157.3368 O.3     1  UNL1       -0.4754
     37 C         141.3195  142.2654  156.6805 C.3     1  UNL1        0.2068
     38 C         140.2291  141.5856  155.9066 C.3     1  UNL1        0.0646
     39 C         138.9134  141.2920  156.5644 C.3     1  UNL1        0.0759
     40 N         138.8524  141.0462  158.0429 N.3     1  UNL1       -0.2726
     41 C         138.4463  142.2213  158.8818 C.3     1  UNL1        0.0721
     42 C         138.2930  142.2983  160.3721 C.3     1  UNL1        0.0173
     43 C         138.5080  141.2189  161.3913 C.3     1  UNL1        0.0015
     44 C         138.9294  139.7962  161.1721 C.3     1  UNL1        0.0015
     45 C         139.2399  139.1013  159.8795 C.3     1  UNL1        0.0173
     46 C         139.2056  139.6575  158.4869 C.3     1  UNL1        0.0721
@<TRIPOS>BOND
     1     7     8    2
     2     8     9   ar
     3     9    10   ar
     4    10    11   ar
     5    11    12   ar
     6    12    13   ar
     7    13    14   ar
     8    14    15   ar
     9    15    18    1
    10    18    19    1
    11    19    20   ar
    12    20    21   ar
    13    21    22   ar
    14    22    23    1
    15    22    24   ar
    16    24    25   ar
    17    15    16   ar
    18    16    17   ar
    19    17     6    1
    20     1     6    1
    21     1     2    1
    22     2     3    1
    23     3     4    1
    24     4     5    1
    25     5    26    1
    26    26    27    1
    27    27    28    1
    28    28    29    1
    29    29    30    1
    30    30    31   ar
    31    31    32   ar
    32    32    33   ar
    33    33    36    1
    34    36    37    1
    35    37    38    1
    36    38    39    1
    37    39    40    1
    38    40    41    1
    39    41    42    1
    40    42    43    1
    41    43    44    1
    42    44    45    1
    43    45    46    1
    44    33    34   ar
    45    34    35   ar
    46    17     8   ar
    47     5     1    1
    48    35    30   ar
    49    14     9   ar
    50    25    19   ar
    51    46    40    1
@<TRIPOS>MOLECULE
*****
 46 51 0 0 0
SMALL
GASTEIGER

@<TRIPOS>ATOM
      1 C         142.7041  138.9534  163.8095 C.3     1  UNL1        0.0821
      2 C         143.1976  138.9517  162.3931 C.3     1  UNL1        0.0194
      3 C         142.2448  138.1352  161.5712 C.3     1  UNL1        0.0188
      4 C         141.1623  137.6323  162.4798 C.3     1  UNL1        0.0722
      5 N         141.4462  138.1380  163.8632 N.3     1  UNL1       -0.2721
      6 C         143.3543  139.6485  164.9688 C.3     1  UNL1        0.1465
      7 O         143.3549  138.4321  167.7112 O.2     1  UNL1       -0.2655
      8 C         142.5098  139.6380  167.4258 C.ar    1  UNL1        0.2764
      9 C         141.6651  140.2358  168.5117 C.ar    1  UNL1        0.0618
     10 C         141.6653  139.6276  169.8828 C.ar    1  UNL1        0.0255
     11 C         140.8205  140.2254  170.9686 C.ar    1  UNL1        0.0990
     12 N         139.9755  141.4314  170.6833 N.ar    1  UNL1       -0.2423
     13 C         139.9752  142.0397  169.3121 C.ar    1  UNL1        0.1002
     14 C         140.8200  141.4419  168.2263 C.ar    1  UNL1        0.0394
     15 C         140.8197  142.0501  166.8552 C.ar    1  UNL1        0.0847
     16 N         141.6645  141.4523  165.7693 N.ar    1  UNL1       -0.1708
     17 N         142.5096  140.2463  166.0547 N.ar    1  UNL1       -0.2156
     18 C         139.9747  143.2561  166.5698 C.3     1  UNL1        0.0739
     19 C         139.9749  143.8647  165.1988 C.ar    1  UNL1       -0.0161
     20 C         141.2738  144.1889  164.5223 C.ar    1  UNL1       -0.0030
     21 C         141.2740  144.7975  163.1514 C.ar    1  UNL1        0.0111
     22 C         139.9752  145.0819  162.4569 C.ar    1  UNL1        0.0577
     23 CL        139.9754  145.6906  161.0859 Cl      1  UNL1       -0.0822
     24 C         138.6763  144.7578  163.1334 C.ar    1  UNL1        0.0111
     25 C         138.6761  144.1492  164.5043 C.ar    1  UNL1       -0.0030
     26 C         140.6177  137.8746  165.0855 C.3     1  UNL1        0.0721
     27 C         139.1269  138.0303  165.0290 C.3     1  UNL1        0.0177
     28 C         138.4764  139.2436  165.6244 C.3     1  UNL1        0.0061
     29 C         138.1324  140.4145  164.7522 C.3     1  UNL1        0.0264
     30 C         138.5559  140.4279  163.3133 C.ar    1  UNL1       -0.0220
     31 C         139.8094  141.1445  162.9070 C.ar    1  UNL1       -0.0012
     32 C         140.2329  141.1579  161.4681 C.ar    1  UNL1        0.0366
     33 C         139.4029  140.4546  160.4354 C.ar    1  UNL1        0.1385
     34 C         138.1494  139.7380  160.8417 C.ar    1  UNL1        0.0366
     35 C         137.7259  139.7246  162.2806 C.ar    1  UNL1       -0.0012
     36 O         139.8264  140.4680  158.9965 O.3     1  UNL1       -0.4754
     37 C         139.1345  141.3717  158.0195 C.3     1  UNL1        0.2068
     38 C         139.0104  142.8377  158.3119 C.3     1  UNL1        0.0646
     39 C         140.1293  143.7709  157.9557 C.3     1  UNL1        0.0759
     40 N         141.5536  143.3456  158.1570 N.3     1  UNL1       -0.2726
     41 C         142.3103  142.9947  156.9103 C.3     1  UNL1        0.0721
     42 C         143.7332  142.5389  156.7770 C.3     1  UNL1        0.0173
     43 C         144.7507  142.3214  157.8574 C.3     1  UNL1        0.0015
     44 C         144.5967  142.5061  159.3380 C.3     1  UNL1        0.0015
     45 C         143.3871  142.9537  160.1038 C.3     1  UNL1        0.0173
     46 C         142.0328  143.3273  159.5783 C.3     1  UNL1        0.0721
@<TRIPOS>BOND
     1     7     8    2
     2     8     9   ar
     3     9    10   ar
     4    10    11   ar
     5    11    12   ar
     6    12    13   ar
     7    13    14   ar
     8    14    15   ar
     9    15    18    1
    10    18    19    1
    11    19    20   ar
    12    20    21   ar
    13    21    22   ar
    14    22    23    1
    15    22    24   ar
    16    24    25   ar
    17    15    16   ar
    18    16    17   ar
    19    17     6    1
    20     1     6    1
    21     1     2    1
    22     2     3    1
    23     3     4    1
    24     4     5    1
    25     5    26    1
    26    26    27    1
    27    27    28    1
    28    28    29    1
    29    29    30    1
    30    30    31   ar
    31    31    32   ar
    32    32    33   ar
    33    33    36    1
    34    36    37    1
    35    37    38    1
    36    38    39    1
    37    39    40    1
    38    40    41    1
    39    41    42    1
    40    42    43    1
    41    43    44    1
    42    44    45    1
    43    45    46    1
    44    33    34   ar
    45    34    35   ar
    46    17     8   ar
    47     5     1    1
    48    35    30   ar
    49    14     9   ar
    50    25    19   ar
    51    46    40    1
