@<TRIPOS>MOLECULE
*****
 36 38 0 0 0
SMALL
GASTEIGER

@<TRIPOS>ATOM
      1 N         142.9154  139.2074  162.9643 N.am    1  UNL1       -0.2797
      2 C         144.0534  139.8226  162.2051 C.3     1  UNL1        0.0956
      3 C         144.2261  139.0563  160.9272 C.3     1  UNL1        0.0505
      4 C         143.1947  137.9676  160.8966 C.3     1  UNL1        0.1507
      5 C         142.3847  138.0610  162.1556 C.2     1  UNL1        0.2435
      6 O         141.2441  137.1652  162.5386 O.2     1  UNL1       -0.2731
      7 C         141.3655  140.5632  166.9655 C.3     1  UNL1        0.0577
      8 C         142.4764  139.5580  166.8930 C.3     1  UNL1        0.0177
      9 C         142.9930  139.1061  165.5593 C.3     1  UNL1        0.0212
     10 C         142.3987  139.6594  164.2981 C.3     1  UNL1        0.0771
     11 C         141.2878  140.6646  164.3706 C.3     1  UNL1        0.0432
     12 C         140.7712  141.1165  165.7043 C.3     1  UNL1        0.0194
     13 N         140.8488  141.0152  168.2993 N.3     1  UNL1       -0.2741
     14 C         139.7979  140.2128  169.0076 C.3     1  UNL1        0.0896
     15 C         142.8543  142.4127  169.1796 C.3     1  UNL1        0.0173
     16 C         141.3830  142.2695  168.9247 C.3     1  UNL1        0.0576
     17 C         140.4460  143.3808  169.2952 C.3     1  UNL1        0.0173
     18 C         140.6935  141.2180  163.1094 C.3     1  UNL1        0.1525
     19 S         139.2038  141.2678  162.9412 S.O2    1  UNL1       -0.0082
     20 C         137.7140  141.3176  162.7731 C.3     1  UNL1        0.1760
     21 O         139.2461  142.7656  163.0101 O.2     1  UNL1       -0.1729
     22 O         139.1615  139.7700  162.8724 O.2     1  UNL1       -0.1729
     23 N         143.0064  136.9620  159.7996 N.am    1  UNL1       -0.2948
     24 C         142.6303  137.4177  158.4209 C.2     1  UNL1        0.2461
     25 O         142.4424  138.8790  158.1391 O.2     1  UNL1       -0.2701
     26 H         143.1298  136.0030  159.9845 H       1  UNL1        0.1501
     27 C         142.4420  136.4121  157.3240 C.ar    1  UNL1        0.0533
     28 C         141.3386  136.5911  156.3238 C.ar    1  UNL1        0.0045
     29 C         141.1503  135.5854  155.2268 C.ar    1  UNL1        0.0001
     30 C         142.0654  134.4009  155.1301 C.ar    1  UNL1        0.0039
     31 C         143.1688  134.2219  156.1303 C.ar    1  UNL1        0.0716
     32 C         143.3571  135.2276  157.2273 C.ar    1  UNL1        0.0084
     33 C         144.0839  133.0373  156.0336 C.3     1  UNL1        0.4186
     34 F         144.9990  131.8528  155.9369 F       1  UNL1       -0.1659
     35 F         144.6552  133.3687  157.3803 F       1  UNL1       -0.1659
     36 F         143.5126  132.7060  154.6868 F       1  UNL1       -0.1659
@<TRIPOS>BOND
     1    15    16    1
     2    16    17    1
     3    16    13    1
     4    13    14    1
     5     7    13    1
     6     7     8    1
     7     8     9    1
     8     9    10    1
     9    10     1    1
    10     1     2    1
    11     2     3    1
    12     3     4    1
    13     4    23    1
    14    23    24   am
    15    24    25    2
    16    24    27    1
    17    27    28   ar
    18    28    29   ar
    19    29    30   ar
    20    30    31   ar
    21    31    33    1
    22    33    34    1
    23    33    35    1
    24    33    36    1
    25    31    32   ar
    26     4     5    1
    27     5     6    2
    28    10    11    1
    29    11    18    1
    30    18    19    1
    31    19    20    1
    32    19    21    2
    33    19    22    2
    34    11    12    1
    35    12     7    1
    36     5     1   am
    37    32    27   ar
    38    23    26    1
@<TRIPOS>MOLECULE
*****
 36 38 0 0 0
SMALL
GASTEIGER

@<TRIPOS>ATOM
      1 N         143.2369  143.1076  164.2520 N.am    1  UNL1       -0.2797
      2 C         143.8455  144.4123  163.8309 C.3     1  UNL1        0.0956
      3 C         144.4445  144.2261  162.4683 C.3     1  UNL1        0.0505
      4 C         144.2061  142.8062  162.0474 C.3     1  UNL1        0.1507
      5 C         143.4598  142.1150  163.1498 C.2     1  UNL1        0.2435
      6 O         143.0146  140.6826  163.1498 O.2     1  UNL1       -0.2731
      7 C         141.1152  142.3112  168.1397 C.3     1  UNL1        0.0577
      8 C         142.6055  142.1643  168.0549 C.3     1  UNL1        0.0177
      9 C         143.3128  142.4298  166.7590 C.3     1  UNL1        0.0212
     10 C         142.5297  142.8421  165.5479 C.3     1  UNL1        0.0771
     11 C         141.0393  142.9890  165.6328 C.3     1  UNL1        0.0432
     12 C         140.3321  142.7235  166.9287 C.3     1  UNL1        0.0194
     13 N         140.4079  142.0457  169.4356 N.3     1  UNL1       -0.2741
     14 C         140.0610  143.1848  170.3478 C.3     1  UNL1        0.0896
     15 C         141.1274  139.6243  170.0430 C.3     1  UNL1        0.0173
     16 C         140.0476  140.6412  169.8194 C.3     1  UNL1        0.0576
     17 C         138.6074  140.2534  169.9795 C.3     1  UNL1        0.0173
     18 C         140.2561  143.4014  164.4217 C.3     1  UNL1        0.1525
     19 S         138.9789  142.6941  164.0779 S.O2    1  UNL1       -0.0082
     20 C         137.7015  141.9867  163.7341 C.3     1  UNL1        0.1760
     21 O         138.2002  143.9236  164.4413 O.2     1  UNL1       -0.1729
     22 O         139.7575  141.4646  163.7145 O.2     1  UNL1       -0.1729
     23 N         144.6381  142.1864  160.7515 N.am    1  UNL1       -0.2948
     24 C         144.0393  142.6562  159.4590 C.2     1  UNL1        0.2461
     25 O         143.0085  143.7458  159.4622 O.2     1  UNL1       -0.2701
     26 H         145.3147  141.4712  160.7494 H       1  UNL1        0.1501
     27 C         144.4714  142.0363  158.1632 C.ar    1  UNL1        0.0533
     28 C         143.5519  141.1004  157.4362 C.ar    1  UNL1        0.0045
     29 C         143.9840  140.4805  156.1403 C.ar    1  UNL1        0.0001
     30 C         145.3355  140.7965  155.5716 C.ar    1  UNL1        0.0039
     31 C         146.2550  141.7324  156.2987 C.ar    1  UNL1        0.0716
     32 C         145.8229  142.3523  157.5945 C.ar    1  UNL1        0.0084
     33 C         147.6066  142.0484  155.7300 C.3     1  UNL1        0.4186
     34 F         148.9581  142.3645  155.1612 F       1  UNL1       -0.1659
     35 F         147.1527  141.5670  154.3838 F       1  UNL1       -0.1659
     36 F         148.0605  142.5299  157.0761 F       1  UNL1       -0.1659
@<TRIPOS>BOND
     1    15    16    1
     2    16    17    1
     3    16    13    1
     4    13    14    1
     5     7    13    1
     6     7     8    1
     7     8     9    1
     8     9    10    1
     9    10     1    1
    10     1     2    1
    11     2     3    1
    12     3     4    1
    13     4    23    1
    14    23    24   am
    15    24    25    2
    16    24    27    1
    17    27    28   ar
    18    28    29   ar
    19    29    30   ar
    20    30    31   ar
    21    31    33    1
    22    33    34    1
    23    33    35    1
    24    33    36    1
    25    31    32   ar
    26     4     5    1
    27     5     6    2
    28    10    11    1
    29    11    18    1
    30    18    19    1
    31    19    20    1
    32    19    21    2
    33    19    22    2
    34    11    12    1
    35    12     7    1
    36     5     1   am
    37    32    27   ar
    38    23    26    1
@<TRIPOS>MOLECULE
*****
 36 38 0 0 0
SMALL
GASTEIGER

@<TRIPOS>ATOM
      1 N         139.2613  142.3554  163.7200 N.am    1  UNL1       -0.2797
      2 C         137.8590  142.5138  163.2118 C.3     1  UNL1        0.0956
      3 C         137.9301  142.8432  161.7501 C.3     1  UNL1        0.0505
      4 C         139.3764  142.8884  161.3550 C.3     1  UNL1        0.1507
      5 C         140.1991  142.5869  162.5725 C.2     1  UNL1        0.2435
      6 O         141.6968  142.5273  162.6319 O.2     1  UNL1       -0.2731
      7 C         140.4468  141.3602  167.9455 C.3     1  UNL1        0.0577
      8 C         140.4493  142.7868  167.4820 C.3     1  UNL1        0.0177
      9 C         140.0541  143.1185  166.0735 C.3     1  UNL1        0.0212
     10 C         139.6565  142.0237  165.1285 C.3     1  UNL1        0.0771
     11 C         139.6540  140.5971  165.5920 C.3     1  UNL1        0.0432
     12 C         140.0492  140.2654  167.0004 C.3     1  UNL1        0.0194
     13 N         140.8420  141.0285  169.3540 N.3     1  UNL1       -0.2741
     14 C         139.8412  141.1572  170.4638 C.3     1  UNL1        0.0896
     15 C         142.5124  139.1134  169.8941 C.3     1  UNL1        0.0173
     16 C         142.2380  140.5681  169.6526 C.3     1  UNL1        0.0576
     17 C         143.3596  141.5625  169.7097 C.3     1  UNL1        0.0173
     18 C         139.2564  139.5021  164.6469 C.3     1  UNL1        0.1525
     19 S         140.1609  138.3232  164.4418 S.O2    1  UNL1       -0.0082
     20 C         141.0653  137.1442  164.2367 C.3     1  UNL1        0.1760
     21 O         141.1695  139.2127  163.7774 O.2     1  UNL1       -0.1729
     22 O         139.1522  137.4338  165.1062 O.2     1  UNL1       -0.1729
     23 N         139.9068  143.1833  159.9833 N.am    1  UNL1       -0.2948
     24 C         140.1364  144.6031  159.5571 C.2     1  UNL1        0.2461
     25 O         139.8356  145.7279  160.5027 O.2     1  UNL1       -0.2701
     26 H         140.1043  142.4450  159.3626 H       1  UNL1        0.1501
     27 C         140.6669  144.8979  158.1854 C.ar    1  UNL1        0.0533
     28 C         141.8600  144.1515  157.6663 C.ar    1  UNL1        0.0045
     29 C         142.3905  144.4463  156.2945 C.ar    1  UNL1        0.0001
     30 C         141.7279  145.4875  155.4419 C.ar    1  UNL1        0.0039
     31 C         140.5348  146.2339  155.9610 C.ar    1  UNL1        0.0716
     32 C         140.0043  145.9390  157.3328 C.ar    1  UNL1        0.0084
     33 C         139.8723  147.2750  155.1084 C.3     1  UNL1        0.4186
     34 F         139.2097  148.3162  154.2558 F       1  UNL1       -0.1659
     35 F         140.7246  146.8643  153.9445 F       1  UNL1       -0.1659
     36 F         139.0199  147.6858  156.2724 F       1  UNL1       -0.1659
@<TRIPOS>BOND
     1    15    16    1
     2    16    17    1
     3    16    13    1
     4    13    14    1
     5     7    13    1
     6     7     8    1
     7     8     9    1
     8     9    10    1
     9    10     1    1
    10     1     2    1
    11     2     3    1
    12     3     4    1
    13     4    23    1
    14    23    24   am
    15    24    25    2
    16    24    27    1
    17    27    28   ar
    18    28    29   ar
    19    29    30   ar
    20    30    31   ar
    21    31    33    1
    22    33    34    1
    23    33    35    1
    24    33    36    1
    25    31    32   ar
    26     4     5    1
    27     5     6    2
    28    10    11    1
    29    11    18    1
    30    18    19    1
    31    19    20    1
    32    19    21    2
    33    19    22    2
    34    11    12    1
    35    12     7    1
    36     5     1   am
    37    32    27   ar
    38    23    26    1
@<TRIPOS>MOLECULE
*****
 36 38 0 0 0
SMALL
GASTEIGER

@<TRIPOS>ATOM
      1 N         141.2015  139.2353  163.6496 N.am    1  UNL1       -0.2797
      2 C         139.9464  138.5908  163.1404 C.3     1  UNL1        0.0956
      3 C         140.2444  137.9924  161.7976 C.3     1  UNL1        0.0505
      4 C         141.6837  138.2671  161.4769 C.3     1  UNL1        0.1507
      5 C         142.2752  139.0352  162.6215 C.2     1  UNL1        0.2435
      6 O         143.6918  139.5184  162.7205 O.2     1  UNL1       -0.2731
      7 C         141.6645  141.3904  167.5728 C.3     1  UNL1        0.0577
      8 C         142.0774  139.9534  167.4532 C.3     1  UNL1        0.0177
      9 C         141.9231  139.2350  166.1455 C.3     1  UNL1        0.0212
     10 C         141.3558  139.9536  164.9573 C.3     1  UNL1        0.0771
     11 C         140.9429  141.3907  165.0769 C.3     1  UNL1        0.0432
     12 C         141.0972  142.1091  166.3846 C.3     1  UNL1        0.0194
     13 N         141.8188  142.1088  168.8805 N.3     1  UNL1       -0.2741
     14 C         143.1872  142.3616  169.4404 C.3     1  UNL1        0.0896
     15 C         139.5681  141.5829  170.0669 C.3     1  UNL1        0.0173
     16 C         140.6047  142.5744  169.6283 C.3     1  UNL1        0.0576
     17 C         140.4273  144.0314  169.9374 C.3     1  UNL1        0.0173
     18 C         140.3756  142.1094  163.8887 C.3     1  UNL1        0.1525
     19 S         139.1702  142.9877  164.0487 S.O2    1  UNL1       -0.0082
     20 C         137.9648  143.8661  164.2086 C.3     1  UNL1        0.1760
     21 O         138.3192  141.7760  164.2885 O.2     1  UNL1       -0.1729
     22 O         140.0213  144.1994  163.8089 O.2     1  UNL1       -0.1729
     23 N         142.4049  137.8474  160.2304 N.am    1  UNL1       -0.2948
     24 C         142.0168  138.4342  158.9056 C.2     1  UNL1        0.2461
     25 O         140.9075  139.4408  158.8273 O.2     1  UNL1       -0.2701
     26 H         143.1330  137.1867  160.2818 H       1  UNL1        0.1501
     27 C         142.7380  138.0145  157.6593 C.ar    1  UNL1        0.0533
     28 C         143.3358  139.0502  156.7538 C.ar    1  UNL1        0.0045
     29 C         144.0571  138.6304  155.5073 C.ar    1  UNL1        0.0001
     30 C         144.1806  137.1750  155.1663 C.ar    1  UNL1        0.0039
     31 C         143.5828  136.1392  156.0718 C.ar    1  UNL1        0.0716
     32 C         142.8615  136.5590  157.3183 C.ar    1  UNL1        0.0084
     33 C         143.7063  134.6837  155.7308 C.3     1  UNL1        0.4186
     34 F         143.8297  133.2282  155.3898 F       1  UNL1       -0.1659
     35 F         143.2477  134.9725  154.3322 F       1  UNL1       -0.1659
     36 F         144.1649  134.3949  157.1295 F       1  UNL1       -0.1659
@<TRIPOS>BOND
     1    15    16    1
     2    16    17    1
     3    16    13    1
     4    13    14    1
     5     7    13    1
     6     7     8    1
     7     8     9    1
     8     9    10    1
     9    10     1    1
    10     1     2    1
    11     2     3    1
    12     3     4    1
    13     4    23    1
    14    23    24   am
    15    24    25    2
    16    24    27    1
    17    27    28   ar
    18    28    29   ar
    19    29    30   ar
    20    30    31   ar
    21    31    33    1
    22    33    34    1
    23    33    35    1
    24    33    36    1
    25    31    32   ar
    26     4     5    1
    27     5     6    2
    28    10    11    1
    29    11    18    1
    30    18    19    1
    31    19    20    1
    32    19    21    2
    33    19    22    2
    34    11    12    1
    35    12     7    1
    36     5     1   am
    37    32    27   ar
    38    23    26    1
@<TRIPOS>MOLECULE
*****
 36 38 0 0 0
SMALL
GASTEIGER

@<TRIPOS>ATOM
      1 N         138.8329  139.4300  163.1498 N.am    1  UNL1       -0.2797
      2 C         139.2977  138.1877  162.4493 C.3     1  UNL1        0.0956
      3 C         138.8261  138.2535  161.0269 C.3     1  UNL1        0.0505
      4 C         138.0698  139.5366  160.8482 C.3     1  UNL1        0.1507
      5 C         138.0740  140.2636  162.1602 C.2     1  UNL1        0.2435
      6 O         137.4321  141.5913  162.4345 O.2     1  UNL1       -0.2731
      7 C         139.5834  140.4730  167.4624 C.3     1  UNL1        0.0577
      8 C         138.5737  139.4212  167.1099 C.3     1  UNL1        0.0177
      9 C         138.3236  139.0736  165.6723 C.3     1  UNL1        0.0212
     10 C         139.0831  139.7777  164.5873 C.3     1  UNL1        0.0771
     11 C         140.0927  140.8295  164.9398 C.3     1  UNL1        0.0432
     12 C         140.3429  141.1771  166.3774 C.3     1  UNL1        0.0194
     13 N         139.8335  140.8206  168.9000 N.3     1  UNL1       -0.2741
     14 C         139.0336  140.1579  169.9820 C.3     1  UNL1        0.0896
     15 C         140.5046  143.2687  169.4537 C.3     1  UNL1        0.0173
     16 C         140.8836  141.8310  169.2555 C.3     1  UNL1        0.0576
     17 C         142.3129  141.4036  169.4129 C.3     1  UNL1        0.0173
     18 C         140.8523  141.5337  163.8548 C.3     1  UNL1        0.1525
     19 S         142.3468  141.6360  163.9306 S.O2    1  UNL1       -0.0082
     20 C         143.8415  141.7383  164.0063 C.3     1  UNL1        0.1760
     21 O         142.4600  140.1593  163.6925 O.2     1  UNL1       -0.1729
     22 O         142.2337  143.1126  164.1687 O.2     1  UNL1       -0.1729
     23 N         137.4229  140.0095  159.5802 N.am    1  UNL1       -0.2948
     24 C         138.0895  141.0626  158.7456 C.2     1  UNL1        0.2461
     25 O         139.4031  141.6428  159.1790 O.2     1  UNL1       -0.2701
     26 H         136.5607  139.6286  159.2957 H       1  UNL1        0.1501
     27 C         137.4426  141.5354  157.4777 C.ar    1  UNL1        0.0533
     28 C         136.4385  140.6672  156.7790 C.ar    1  UNL1        0.0045
     29 C         135.7915  141.1401  155.5110 C.ar    1  UNL1        0.0001
     30 C         136.1485  142.4811  154.9416 C.ar    1  UNL1        0.0039
     31 C         137.1526  143.3493  155.6403 C.ar    1  UNL1        0.0716
     32 C         137.7996  142.8764  156.9083 C.ar    1  UNL1        0.0084
     33 C         137.5096  144.6903  155.0709 C.3     1  UNL1        0.4186
     34 F         137.8666  146.0313  154.5016 F       1  UNL1       -0.1659
     35 F         138.5099  144.8909  156.1705 F       1  UNL1       -0.1659
     36 F         136.5093  144.4898  153.9713 F       1  UNL1       -0.1659
@<TRIPOS>BOND
     1    15    16    1
     2    16    17    1
     3    16    13    1
     4    13    14    1
     5     7    13    1
     6     7     8    1
     7     8     9    1
     8     9    10    1
     9    10     1    1
    10     1     2    1
    11     2     3    1
    12     3     4    1
    13     4    23    1
    14    23    24   am
    15    24    25    2
    16    24    27    1
    17    27    28   ar
    18    28    29   ar
    19    29    30   ar
    20    30    31   ar
    21    31    33    1
    22    33    34    1
    23    33    35    1
    24    33    36    1
    25    31    32   ar
    26     4     5    1
    27     5     6    2
    28    10    11    1
    29    11    18    1
    30    18    19    1
    31    19    20    1
    32    19    21    2
    33    19    22    2
    34    11    12    1
    35    12     7    1
    36     5     1   am
    37    32    27   ar
    38    23    26    1
@<TRIPOS>MOLECULE
*****
 36 38 0 0 0
SMALL
GASTEIGER

@<TRIPOS>ATOM
      1 N         139.0172  139.1404  163.1862 N.am    1  UNL1       -0.2797
      2 C         139.5633  137.9894  162.3943 C.3     1  UNL1        0.0956
      3 C         139.0768  138.1261  160.9820 C.3     1  UNL1        0.0505
      4 C         138.2300  139.3616  160.9010 C.3     1  UNL1        0.1507
      5 C         138.1932  139.9884  162.2632 C.2     1  UNL1        0.2435
      6 O         137.4609  141.2430  162.6369 O.2     1  UNL1       -0.2731
      7 C         139.7266  139.9134  167.5621 C.3     1  UNL1        0.0577
      8 C         138.5140  139.1475  167.1227 C.3     1  UNL1        0.0177
      9 C         138.2776  138.8898  165.6641 C.3     1  UNL1        0.0212
     10 C         139.2537  139.3980  164.6448 C.3     1  UNL1        0.0771
     11 C         140.4662  140.1639  165.0842 C.3     1  UNL1        0.0432
     12 C         140.7027  140.4216  166.5429 C.3     1  UNL1        0.0194
     13 N         139.9630  140.1711  169.0208 N.3     1  UNL1       -0.2741
     14 C         138.8009  140.2573  169.9652 C.3     1  UNL1        0.0896
     15 C         141.8970  141.7167  169.8086 C.3     1  UNL1        0.0173
     16 C         141.3616  140.3425  169.5351 C.3     1  UNL1        0.0576
     17 C         142.2250  139.1396  169.7758 C.3     1  UNL1        0.0173
     18 C         141.4424  140.6721  164.0649 C.3     1  UNL1        0.1525
     19 S         142.9010  140.3477  164.1963 S.O2    1  UNL1       -0.0082
     20 C         144.3596  140.0232  164.3277 C.3     1  UNL1        0.1760
     21 O         143.2054  141.8013  164.4064 O.2     1  UNL1       -0.1729
     22 O         142.5965  138.8940  163.9862 O.2     1  UNL1       -0.1729
     23 N         137.5410  139.8793  159.6733 N.am    1  UNL1       -0.2948
     24 C         138.3408  140.5212  158.5787 C.2     1  UNL1        0.2461
     25 O         139.8297  140.6454  158.7117 O.2     1  UNL1       -0.2701
     26 H         136.5637  139.7978  159.5860 H       1  UNL1        0.1501
     27 C         137.6518  141.0389  157.3511 C.ar    1  UNL1        0.0533
     28 C         138.3969  141.9104  156.3840 C.ar    1  UNL1        0.0045
     29 C         137.7078  142.4282  155.1563 C.ar    1  UNL1        0.0001
     30 C         136.2736  142.0745  154.8957 C.ar    1  UNL1        0.0039
     31 C         135.5285  141.2030  155.8628 C.ar    1  UNL1        0.0716
     32 C         136.2176  140.6852  157.0905 C.ar    1  UNL1        0.0084
     33 C         134.0943  140.8492  155.6022 C.3     1  UNL1        0.4186
     34 F         132.6601  140.4955  155.3417 F       1  UNL1       -0.1659
     35 F         134.1898  141.4664  154.2385 F       1  UNL1       -0.1659
     36 F         133.9987  140.2320  156.9660 F       1  UNL1       -0.1659
@<TRIPOS>BOND
     1    15    16    1
     2    16    17    1
     3    16    13    1
     4    13    14    1
     5     7    13    1
     6     7     8    1
     7     8     9    1
     8     9    10    1
     9    10     1    1
    10     1     2    1
    11     2     3    1
    12     3     4    1
    13     4    23    1
    14    23    24   am
    15    24    25    2
    16    24    27    1
    17    27    28   ar
    18    28    29   ar
    19    29    30   ar
    20    30    31   ar
    21    31    33    1
    22    33    34    1
    23    33    35    1
    24    33    36    1
    25    31    32   ar
    26     4     5    1
    27     5     6    2
    28    10    11    1
    29    11    18    1
    30    18    19    1
    31    19    20    1
    32    19    21    2
    33    19    22    2
    34    11    12    1
    35    12     7    1
    36     5     1   am
    37    32    27   ar
    38    23    26    1
@<TRIPOS>MOLECULE
*****
 36 38 0 0 0
SMALL
GASTEIGER

@<TRIPOS>ATOM
      1 N         141.0409  140.0526  162.4561 N.am    1  UNL1       -0.2797
      2 C         141.0474  141.2372  161.5359 C.3     1  UNL1        0.0956
      3 C         140.9882  140.7292  160.1258 C.3     1  UNL1        0.0505
      4 C         140.9452  139.2306  160.1745 C.3     1  UNL1        0.1507
      5 C         140.9778  138.8125  161.6146 C.2     1  UNL1        0.2435
      6 O         140.9518  137.4018  162.1239 O.2     1  UNL1       -0.2731
      7 C         141.1857  140.1944  166.9515 C.3     1  UNL1        0.0577
      8 C         139.9001  140.4793  166.2332 C.3     1  UNL1        0.0177
      9 C         139.8519  140.4320  164.7347 C.3     1  UNL1        0.0212
     10 C         141.0892  140.0999  163.9546 C.3     1  UNL1        0.0771
     11 C         142.3748  139.8150  164.6729 C.3     1  UNL1        0.0432
     12 C         142.4230  139.8622  166.1714 C.3     1  UNL1        0.0194
     13 N         141.2339  140.2416  168.4500 N.3     1  UNL1       -0.2741
     14 C         142.2453  139.4210  169.1941 C.3     1  UNL1        0.0896
     15 C         139.1222  140.4890  169.9431 C.3     1  UNL1        0.0173
     16 C         140.2708  141.1095  169.2044 C.3     1  UNL1        0.0576
     17 C         140.4563  142.5980  169.2201 C.3     1  UNL1        0.0173
     18 C         143.6122  139.4828  163.8928 C.3     1  UNL1        0.1525
     19 S         144.4202  140.5797  163.2652 S.O2    1  UNL1       -0.0082
     20 C         145.2282  141.6766  162.6376 C.3     1  UNL1        0.1760
     21 O         144.4835  141.2885  164.5857 O.2     1  UNL1       -0.1729
     22 O         144.3569  139.8709  161.9448 O.2     1  UNL1       -0.1729
     23 N         140.8809  138.3115  158.9908 N.am    1  UNL1       -0.2948
     24 C         142.1397  137.9231  158.2735 C.2     1  UNL1        0.2461
     25 O         143.4629  138.4538  158.7399 O.2     1  UNL1       -0.2701
     26 H         140.0124  137.9632  158.6847 H       1  UNL1        0.1501
     27 C         142.0753  137.0041  157.0899 C.ar    1  UNL1        0.0533
     28 C         141.1261  137.2948  155.9654 C.ar    1  UNL1        0.0045
     29 C         141.0616  136.3756  154.7817 C.ar    1  UNL1        0.0001
     30 C         141.9465  135.1659  154.7224 C.ar    1  UNL1        0.0039
     31 C         142.8957  134.8752  155.8469 C.ar    1  UNL1        0.0716
     32 C         142.9602  135.7943  157.0306 C.ar    1  UNL1        0.0084
     33 C         143.7806  133.6654  155.7876 C.3     1  UNL1        0.4186
     34 F         144.6654  132.4556  155.7284 F       1  UNL1       -0.1659
     35 F         143.2037  133.3090  154.4497 F       1  UNL1       -0.1659
     36 F         144.3574  134.0218  157.1256 F       1  UNL1       -0.1659
@<TRIPOS>BOND
     1    15    16    1
     2    16    17    1
     3    16    13    1
     4    13    14    1
     5     7    13    1
     6     7     8    1
     7     8     9    1
     8     9    10    1
     9    10     1    1
    10     1     2    1
    11     2     3    1
    12     3     4    1
    13     4    23    1
    14    23    24   am
    15    24    25    2
    16    24    27    1
    17    27    28   ar
    18    28    29   ar
    19    29    30   ar
    20    30    31   ar
    21    31    33    1
    22    33    34    1
    23    33    35    1
    24    33    36    1
    25    31    32   ar
    26     4     5    1
    27     5     6    2
    28    10    11    1
    29    11    18    1
    30    18    19    1
    31    19    20    1
    32    19    21    2
    33    19    22    2
    34    11    12    1
    35    12     7    1
    36     5     1   am
    37    32    27   ar
    38    23    26    1
@<TRIPOS>MOLECULE
*****
 36 38 0 0 0
SMALL
GASTEIGER

@<TRIPOS>ATOM
      1 N         143.0202  141.5398  160.2682 N.am    1  UNL1       -0.2797
      2 C         141.6908  142.2011  160.4806 C.3     1  UNL1        0.0956
      3 C         141.2939  141.9950  161.9124 C.3     1  UNL1        0.0505
      4 C         142.3782  141.2062  162.5849 C.3     1  UNL1        0.1507
      5 C         143.4451  140.9249  161.5687 C.2     1  UNL1        0.2435
      6 O         144.7140  140.1625  161.8106 O.2     1  UNL1       -0.2731
      7 C         145.3287  141.4213  156.4073 C.3     1  UNL1        0.0577
      8 C         145.6851  142.4248  157.4637 C.3     1  UNL1        0.0177
      9 C         144.9155  142.4643  158.7506 C.3     1  UNL1        0.0212
     10 C         143.7897  141.5003  158.9812 C.3     1  UNL1        0.0771
     11 C         143.4334  140.4968  157.9248 C.3     1  UNL1        0.0432
     12 C         144.2029  140.4573  156.6379 C.3     1  UNL1        0.0194
     13 N         146.0982  141.3818  155.1203 N.3     1  UNL1       -0.2741
     14 C         145.6355  140.5027  153.9965 C.3     1  UNL1        0.0896
     15 C         148.6562  141.7087  155.4361 C.3     1  UNL1        0.0173
     16 C         147.3305  142.2214  154.9571 C.3     1  UNL1        0.0576
     17 C         147.2369  143.5738  154.3150 C.3     1  UNL1        0.0173
     18 C         142.3075  139.5327  158.1554 C.3     1  UNL1        0.1525
     19 S         142.4673  138.0894  157.7797 S.O2    1  UNL1       -0.0082
     20 C         142.6270  136.6459  157.4040 C.3     1  UNL1        0.1760
     21 O         143.3690  137.8819  158.9603 O.2     1  UNL1       -0.1729
     22 O         141.5656  138.2968  156.5992 O.2     1  UNL1       -0.1729
     23 N         142.3930  140.7745  164.0214 N.am    1  UNL1       -0.2948
     24 C         142.7219  141.7649  165.0988 C.2     1  UNL1        0.2461
     25 O         143.0360  143.1870  164.7399 O.2     1  UNL1       -0.2701
     26 H         142.1868  139.8411  164.2570 H       1  UNL1        0.1501
     27 C         142.7366  141.3332  166.5352 C.ar    1  UNL1        0.0533
     28 C         142.4619  139.9021  166.8910 C.ar    1  UNL1        0.0045
     29 C         142.4767  139.4703  168.3275 C.ar    1  UNL1        0.0001
     30 C         142.7661  140.4695  169.4081 C.ar    1  UNL1        0.0039
     31 C         143.0408  141.9006  169.0523 C.ar    1  UNL1        0.0716
     32 C         143.0261  142.3324  167.6158 C.ar    1  UNL1        0.0084
     33 C         143.3303  142.8998  170.1329 C.3     1  UNL1        0.4186
     34 F         143.6197  143.8991  171.2135 F       1  UNL1       -0.1659
     35 F         141.8879  143.3115  170.1386 F       1  UNL1       -0.1659
     36 F         144.7727  142.4882  170.1272 F       1  UNL1       -0.1659
@<TRIPOS>BOND
     1    15    16    1
     2    16    17    1
     3    16    13    1
     4    13    14    1
     5     7    13    1
     6     7     8    1
     7     8     9    1
     8     9    10    1
     9    10     1    1
    10     1     2    1
    11     2     3    1
    12     3     4    1
    13     4    23    1
    14    23    24   am
    15    24    25    2
    16    24    27    1
    17    27    28   ar
    18    28    29   ar
    19    29    30   ar
    20    30    31   ar
    21    31    33    1
    22    33    34    1
    23    33    35    1
    24    33    36    1
    25    31    32   ar
    26     4     5    1
    27     5     6    2
    28    10    11    1
    29    11    18    1
    30    18    19    1
    31    19    20    1
    32    19    21    2
    33    19    22    2
    34    11    12    1
    35    12     7    1
    36     5     1   am
    37    32    27   ar
    38    23    26    1
@<TRIPOS>MOLECULE
*****
 36 38 0 0 0
SMALL
GASTEIGER

@<TRIPOS>ATOM
      1 N         140.0367  142.7405  162.3563 N.am    1  UNL1       -0.2797
      2 C         141.1368  143.2099  161.4512 C.3     1  UNL1        0.0956
      3 C         140.5771  143.3297  160.0647 C.3     1  UNL1        0.0505
      4 C         139.1310  142.9342  160.1129 C.3     1  UNL1        0.1507
      5 C         138.7970  142.5701  161.5292 C.2     1  UNL1        0.2435
      6 O         137.4583  142.1154  162.0303 O.2     1  UNL1       -0.2731
      7 C         140.3928  141.9773  166.7768 C.3     1  UNL1        0.0577
      8 C         139.9379  143.3180  166.2814 C.3     1  UNL1        0.0177
      9 C         139.8192  143.5724  164.8079 C.3     1  UNL1        0.0212
     10 C         140.1554  142.4861  163.8298 C.3     1  UNL1        0.0771
     11 C         140.6102  141.1453  164.3251 C.3     1  UNL1        0.0432
     12 C         140.7289  140.8909  165.7986 C.3     1  UNL1        0.0194
     13 N         140.5114  141.7229  168.2503 N.3     1  UNL1       -0.2741
     14 C         139.8414  140.5281  168.8614 C.3     1  UNL1        0.0896
     15 C         142.7886  142.5123  169.2203 C.3     1  UNL1        0.0173
     16 C         141.3001  142.6632  169.1126 C.3     1  UNL1        0.0576
     17 C         140.6003  143.7545  169.8672 C.3     1  UNL1        0.0173
     18 C         140.9465  140.0589  163.3470 C.3     1  UNL1        0.1525
     19 S         142.2934  139.4003  163.3913 S.O2    1  UNL1       -0.0082
     20 C         143.6404  138.7417  163.4356 C.3     1  UNL1        0.1760
     21 O         142.9406  140.6983  163.0087 O.2     1  UNL1       -0.1729
     22 O         141.6462  138.1024  163.7739 O.2     1  UNL1       -0.1729
     23 N         138.1849  142.9076  158.9491 N.am    1  UNL1       -0.2948
     24 C         138.3268  141.8537  157.8912 C.2     1  UNL1        0.2461
     25 O         139.4147  140.8265  157.9969 O.2     1  UNL1       -0.2701
     26 H         137.4709  143.5818  158.8797 H       1  UNL1        0.1501
     27 C         137.3807  141.8272  156.7275 C.ar    1  UNL1        0.0533
     28 C         137.6594  142.6653  155.5151 C.ar    1  UNL1        0.0045
     29 C         136.7133  142.6387  154.3513 C.ar    1  UNL1        0.0001
     30 C         135.4886  141.7741  154.4000 C.ar    1  UNL1        0.0039
     31 C         135.2099  140.9360  155.6125 C.ar    1  UNL1        0.0716
     32 C         136.1560  140.9626  156.7762 C.ar    1  UNL1        0.0084
     33 C         133.9851  140.0714  155.6611 C.3     1  UNL1        0.4186
     34 F         132.7604  139.2068  155.7098 F       1  UNL1       -0.1659
     35 F         133.1597  141.2624  156.0487 F       1  UNL1       -0.1659
     36 F         134.8105  138.8804  155.2736 F       1  UNL1       -0.1659
@<TRIPOS>BOND
     1    15    16    1
     2    16    17    1
     3    16    13    1
     4    13    14    1
     5     7    13    1
     6     7     8    1
     7     8     9    1
     8     9    10    1
     9    10     1    1
    10     1     2    1
    11     2     3    1
    12     3     4    1
    13     4    23    1
    14    23    24   am
    15    24    25    2
    16    24    27    1
    17    27    28   ar
    18    28    29   ar
    19    29    30   ar
    20    30    31   ar
    21    31    33    1
    22    33    34    1
    23    33    35    1
    24    33    36    1
    25    31    32   ar
    26     4     5    1
    27     5     6    2
    28    10    11    1
    29    11    18    1
    30    18    19    1
    31    19    20    1
    32    19    21    2
    33    19    22    2
    34    11    12    1
    35    12     7    1
    36     5     1   am
    37    32    27   ar
    38    23    26    1
