@<TRIPOS>MOLECULE
*****
 27 29 0 0 0
SMALL
GASTEIGER

@<TRIPOS>ATOM
      1 N         142.1626  143.7329  162.0576 N.3     1  UNL1       -0.2682
      2 C         141.7915  142.2975  162.2863 C.3     1  UNL1        0.0897
      3 C         142.1245  141.6353  163.5903 C.3     1  UNL1        0.0899
      4 N         142.8286  142.4084  164.6658 N.3     1  UNL1       -0.2665
      5 C         143.1997  143.8436  164.4372 C.3     1  UNL1        0.0899
      6 C         142.8667  144.5059  163.1331 C.3     1  UNL1        0.0897
      7 C         141.8296  144.3950  160.7536 C.3     1  UNL1        0.1056
      8 O         139.6729  144.5932  159.3186 O.3     1  UNL1       -0.3793
      9 C         140.4639  144.9754  160.5344 C.3     1  UNL1        0.1700
     10 H         138.8194  145.0539  159.3302 H       1  UNL1        0.2106
     11 C         139.8893  145.9380  161.5310 C.3     1  UNL1        0.2358
     12 O         138.6305  145.5910  162.2693 O.3     1  UNL1       -0.4728
     13 C         138.5398  144.3031  163.0330 C.ar    1  UNL1        0.1387
     14 C         137.8081  143.1328  162.4456 C.ar    1  UNL1        0.0378
     15 C         137.7174  141.8450  163.2093 C.ar    1  UNL1        0.0145
     16 C         138.3583  141.7275  164.5604 C.ar    1  UNL1        0.0579
     17 CL        138.2676  140.4396  165.3241 Cl      1  UNL1       -0.0822
     18 C         139.0900  142.8978  165.1478 C.ar    1  UNL1        0.0145
     19 C         139.1807  144.1856  164.3841 C.ar    1  UNL1        0.0378
     20 C         143.1615  141.7462  165.9698 C.3     1  UNL1        0.0992
     21 C         142.0754  141.4578  166.9634 C.ar    1  UNL1       -0.0061
     22 C         141.5502  142.5558  167.8402 C.ar    1  UNL1       -0.0021
     23 C         140.4642  142.2675  168.8338 C.ar    1  UNL1        0.0111
     24 C         139.9032  140.8812  168.9507 C.ar    1  UNL1        0.0577
     25 CL        138.8171  140.5929  169.9443 Cl      1  UNL1       -0.0822
     26 C         140.4283  139.7832  168.0739 C.ar    1  UNL1        0.0111
     27 C         141.5145  140.0716  167.0802 C.ar    1  UNL1       -0.0021
@<TRIPOS>BOND
     1     9     8    1
     2     9    11    1
     3    11    12    1
     4    12    13    1
     5    13    14   ar
     6    14    15   ar
     7    15    16   ar
     8    16    17    1
     9    16    18   ar
    10    18    19   ar
    11     9     7    1
    12     7     1    1
    13     1     2    1
    14     2     3    1
    15     3     4    1
    16     4    20    1
    17    20    21    1
    18    21    22   ar
    19    22    23   ar
    20    23    24   ar
    21    24    25    1
    22    24    26   ar
    23    26    27   ar
    24     4     5    1
    25     5     6    1
    26    19    13   ar
    27     6     1    1
    28    27    21   ar
    29     8    10    1
@<TRIPOS>MOLECULE
*****
 27 29 0 0 0
SMALL
GASTEIGER

@<TRIPOS>ATOM
      1 N         141.8847  143.4415  162.6561 N.3     1  UNL1       -0.2682
      2 C         142.0673  143.5211  164.1429 C.3     1  UNL1        0.0897
      3 C         142.0114  142.2731  164.9732 C.3     1  UNL1        0.0899
      4 N         141.7730  140.9456  164.3168 N.3     1  UNL1       -0.2665
      5 C         141.5904  140.8660  162.8301 C.3     1  UNL1        0.0899
      6 C         141.6463  142.1140  161.9997 C.3     1  UNL1        0.0897
      7 C         141.9405  144.6894  161.8257 C.3     1  UNL1        0.1056
      8 O         140.4604  145.1354  159.7376 O.3     1  UNL1       -0.3793
      9 C         140.6859  145.2418  161.2168 C.3     1  UNL1        0.1700
     10 H         139.6079  145.5388  159.5107 H       1  UNL1        0.2106
     11 C         139.6568  145.9005  162.0869 C.3     1  UNL1        0.2358
     12 O         138.3140  145.2597  162.2768 O.3     1  UNL1       -0.4728
     13 C         138.2211  143.8376  162.7449 C.ar    1  UNL1        0.1387
     14 C         138.3595  143.5177  164.2038 C.ar    1  UNL1        0.0378
     15 C         138.2666  142.0956  164.6719 C.ar    1  UNL1        0.0145
     16 C         138.0352  140.9935  163.6810 C.ar    1  UNL1        0.0579
     17 CL        137.9423  139.5714  164.1491 Cl      1  UNL1       -0.0822
     18 C         137.8968  141.3134  162.2221 C.ar    1  UNL1        0.0145
     19 C         137.9897  142.7355  161.7541 C.ar    1  UNL1        0.0378
     20 C         141.7172  139.6977  165.1472 C.3     1  UNL1        0.0992
     21 C         141.3671  139.7808  166.6034 C.ar    1  UNL1       -0.0061
     22 C         139.9456  140.0153  167.0208 C.ar    1  UNL1       -0.0021
     23 C         139.5955  140.0984  168.4770 C.ar    1  UNL1        0.0111
     24 C         140.6669  139.9469  169.5159 C.ar    1  UNL1        0.0577
     25 CL        140.3169  140.0300  170.9720 Cl      1  UNL1       -0.0822
     26 C         142.0885  139.7124  169.0984 C.ar    1  UNL1        0.0111
     27 C         142.4386  139.6294  167.6422 C.ar    1  UNL1       -0.0021
@<TRIPOS>BOND
     1     9     8    1
     2     9    11    1
     3    11    12    1
     4    12    13    1
     5    13    14   ar
     6    14    15   ar
     7    15    16   ar
     8    16    17    1
     9    16    18   ar
    10    18    19   ar
    11     9     7    1
    12     7     1    1
    13     1     2    1
    14     2     3    1
    15     3     4    1
    16     4    20    1
    17    20    21    1
    18    21    22   ar
    19    22    23   ar
    20    23    24   ar
    21    24    25    1
    22    24    26   ar
    23    26    27   ar
    24     4     5    1
    25     5     6    1
    26    19    13   ar
    27     6     1    1
    28    27    21   ar
    29     8    10    1
@<TRIPOS>MOLECULE
*****
 27 29 0 0 0
SMALL
GASTEIGER

@<TRIPOS>ATOM
      1 N         138.8433  139.5763  159.9115 N.3     1  UNL1       -0.2682
      2 C         140.1794  139.0893  160.3888 C.3     1  UNL1        0.0897
      3 C         140.2936  138.3864  161.7090 C.3     1  UNL1        0.0899
      4 N         139.0718  138.1705  162.5519 N.3     1  UNL1       -0.2665
      5 C         137.7357  138.6574  162.0746 C.3     1  UNL1        0.0899
      6 C         137.6215  139.3603  160.7544 C.3     1  UNL1        0.0897
      7 C         138.7290  140.2791  158.5913 C.3     1  UNL1        0.1056
      8 O         137.5406  142.2583  157.3994 O.3     1  UNL1       -0.3793
      9 C         138.3533  141.7305  158.5445 C.3     1  UNL1        0.1700
     10 H         137.3870  143.2081  157.5227 H       1  UNL1        0.2106
     11 C         138.7901  142.6542  159.6427 C.3     1  UNL1        0.2358
     12 O         137.8595  142.9624  160.7781 O.3     1  UNL1       -0.4728
     13 C         138.3860  143.0345  162.1809 C.ar    1  UNL1        0.1387
     14 C         139.5727  142.2085  162.5800 C.ar    1  UNL1        0.0378
     15 C         140.0991  142.2806  163.9827 C.ar    1  UNL1        0.0145
     16 C         139.4387  143.1787  164.9863 C.ar    1  UNL1        0.0579
     17 CL        139.9651  143.2508  166.3891 Cl      1  UNL1       -0.0822
     18 C         138.2519  144.0047  164.5873 C.ar    1  UNL1        0.0145
     19 C         137.7255  143.9325  163.1845 C.ar    1  UNL1        0.0378
     20 C         139.1860  137.4676  163.8720 C.3     1  UNL1        0.0992
     21 C         139.2872  138.2638  165.1394 C.ar    1  UNL1       -0.0061
     22 C         140.5593  138.9856  165.4721 C.ar    1  UNL1       -0.0021
     23 C         140.6604  139.7817  166.7393 C.ar    1  UNL1        0.0111
     24 C         139.4895  139.8560  167.6739 C.ar    1  UNL1        0.0577
     25 CL        139.5907  140.6521  168.9411 Cl      1  UNL1       -0.0822
     26 C         138.2174  139.1342  167.3412 C.ar    1  UNL1        0.0111
     27 C         138.1162  138.3380  166.0739 C.ar    1  UNL1       -0.0021
@<TRIPOS>BOND
     1     9     8    1
     2     9    11    1
     3    11    12    1
     4    12    13    1
     5    13    14   ar
     6    14    15   ar
     7    15    16   ar
     8    16    17    1
     9    16    18   ar
    10    18    19   ar
    11     9     7    1
    12     7     1    1
    13     1     2    1
    14     2     3    1
    15     3     4    1
    16     4    20    1
    17    20    21    1
    18    21    22   ar
    19    22    23   ar
    20    23    24   ar
    21    24    25    1
    22    24    26   ar
    23    26    27   ar
    24     4     5    1
    25     5     6    1
    26    19    13   ar
    27     6     1    1
    28    27    21   ar
    29     8    10    1
@<TRIPOS>MOLECULE
*****
 27 29 0 0 0
SMALL
GASTEIGER

@<TRIPOS>ATOM
      1 N         138.8792  141.7404  162.2326 N.3     1  UNL1       -0.2682
      2 C         140.3410  141.7700  162.5682 C.3     1  UNL1        0.0897
      3 C         140.7872  142.1753  163.9417 C.3     1  UNL1        0.0899
      4 N         139.7717  142.5511  164.9797 N.3     1  UNL1       -0.2665
      5 C         138.3100  142.5216  164.6443 C.3     1  UNL1        0.0899
      6 C         137.8637  142.1162  163.2707 C.3     1  UNL1        0.0897
      7 C         138.4331  141.3351  160.8591 C.3     1  UNL1        0.1056
      8 O         139.0903  139.3288  159.3450 O.3     1  UNL1       -0.3793
      9 C         138.3185  139.8818  160.5062 C.3     1  UNL1        0.1700
     10 H         138.9043  138.3811  159.2550 H       1  UNL1        0.2106
     11 C         137.4320  138.9813  161.3145 C.3     1  UNL1        0.2358
     12 O         138.0150  137.7962  162.0256 O.3     1  UNL1       -0.4728
     13 C         139.1656  137.9799  162.9703 C.ar    1  UNL1        0.1387
     14 C         140.5568  137.6255  162.5357 C.ar    1  UNL1        0.0378
     15 C         141.7074  137.8091  163.4804 C.ar    1  UNL1        0.0145
     16 C         141.4667  138.3471  164.8597 C.ar    1  UNL1        0.0579
     17 CL        142.6173  138.5307  165.8045 Cl      1  UNL1       -0.0822
     18 C         140.0755  138.7015  165.2944 C.ar    1  UNL1        0.0145
     19 C         138.9250  138.5178  164.3497 C.ar    1  UNL1        0.0378
     20 C         140.2178  142.9564  166.3532 C.3     1  UNL1        0.0992
     21 C         140.7900  141.9326  167.2886 C.ar    1  UNL1       -0.0061
     22 C         142.2660  141.9008  167.5537 C.ar    1  UNL1       -0.0021
     23 C         142.8381  140.8772  168.4889 C.ar    1  UNL1        0.0111
     24 C         141.9342  139.8853  169.1592 C.ar    1  UNL1        0.0577
     25 CL        142.5063  138.8616  170.0944 Cl      1  UNL1       -0.0822
     26 C         140.4581  139.9171  168.8941 C.ar    1  UNL1        0.0111
     27 C         139.8860  140.9408  167.9587 C.ar    1  UNL1       -0.0021
@<TRIPOS>BOND
     1     9     8    1
     2     9    11    1
     3    11    12    1
     4    12    13    1
     5    13    14   ar
     6    14    15   ar
     7    15    16   ar
     8    16    17    1
     9    16    18   ar
    10    18    19   ar
    11     9     7    1
    12     7     1    1
    13     1     2    1
    14     2     3    1
    15     3     4    1
    16     4    20    1
    17    20    21    1
    18    21    22   ar
    19    22    23   ar
    20    23    24   ar
    21    24    25    1
    22    24    26   ar
    23    26    27   ar
    24     4     5    1
    25     5     6    1
    26    19    13   ar
    27     6     1    1
    28    27    21   ar
    29     8    10    1
@<TRIPOS>MOLECULE
*****
 27 29 0 0 0
SMALL
GASTEIGER

@<TRIPOS>ATOM
      1 N         139.1666  143.1290  162.6994 N.3     1  UNL1       -0.2682
      2 C         139.2256  143.4242  164.1689 C.3     1  UNL1        0.0897
      3 C         139.2178  142.2991  165.1608 C.3     1  UNL1        0.0899
      4 N         139.1509  140.8787  164.6833 N.3     1  UNL1       -0.2665
      5 C         139.0919  140.5834  163.2139 C.3     1  UNL1        0.0899
      6 C         139.0998  141.7086  162.2219 C.3     1  UNL1        0.0897
      7 C         139.1744  144.2541  161.7074 C.3     1  UNL1        0.1056
      8 O         140.5983  146.3056  162.4241 O.3     1  UNL1       -0.3793
      9 C         140.3996  145.1046  161.5477 C.3     1  UNL1        0.1700
     10 H         141.4337  146.7405  162.1921 H       1  UNL1        0.2106
     11 C         141.4261  144.7541  160.5116 C.3     1  UNL1        0.2358
     12 O         142.7923  144.3003  160.9329 O.3     1  UNL1       -0.4728
     13 C         143.0430  143.8966  162.3556 C.ar    1  UNL1        0.1387
     14 C         143.7203  144.8478  163.2970 C.ar    1  UNL1        0.0378
     15 C         143.9710  144.4440  164.7197 C.ar    1  UNL1        0.0145
     16 C         143.5442  143.0890  165.2010 C.ar    1  UNL1        0.0579
     17 CL        143.7949  142.6852  166.6238 Cl      1  UNL1       -0.0822
     18 C         142.8669  142.1377  164.2597 C.ar    1  UNL1        0.0145
     19 C         142.6163  142.5415  162.8370 C.ar    1  UNL1        0.0378
     20 C         139.1431  139.7536  165.6753 C.3     1  UNL1        0.0992
     21 C         140.0783  139.7809  166.8478 C.ar    1  UNL1       -0.0061
     22 C         141.5481  139.5652  166.6401 C.ar    1  UNL1       -0.0021
     23 C         142.4832  139.5925  167.8126 C.ar    1  UNL1        0.0111
     24 C         141.9485  139.8356  169.1929 C.ar    1  UNL1        0.0577
     25 CL        142.8836  139.8629  170.3654 Cl      1  UNL1       -0.0822
     26 C         140.4787  140.0513  169.4006 C.ar    1  UNL1        0.0111
     27 C         139.5436  140.0240  168.2280 C.ar    1  UNL1       -0.0021
@<TRIPOS>BOND
     1     9     8    1
     2     9    11    1
     3    11    12    1
     4    12    13    1
     5    13    14   ar
     6    14    15   ar
     7    15    16   ar
     8    16    17    1
     9    16    18   ar
    10    18    19   ar
    11     9     7    1
    12     7     1    1
    13     1     2    1
    14     2     3    1
    15     3     4    1
    16     4    20    1
    17    20    21    1
    18    21    22   ar
    19    22    23   ar
    20    23    24   ar
    21    24    25    1
    22    24    26   ar
    23    26    27   ar
    24     4     5    1
    25     5     6    1
    26    19    13   ar
    27     6     1    1
    28    27    21   ar
    29     8    10    1
@<TRIPOS>MOLECULE
*****
 27 29 0 0 0
SMALL
GASTEIGER

@<TRIPOS>ATOM
      1 N         143.5356  141.1304  162.6125 N.3     1  UNL1       -0.2682
      2 C         143.9909  141.3895  164.0181 C.3     1  UNL1        0.0897
      3 C         143.0432  141.9871  165.0153 C.3     1  UNL1        0.0899
      4 N         141.6401  142.3256  164.6071 N.3     1  UNL1       -0.2665
      5 C         141.1847  142.0666  163.2016 C.3     1  UNL1        0.0899
      6 C         142.1325  141.4690  162.2042 C.3     1  UNL1        0.0897
      7 C         144.4834  140.5328  161.6152 C.3     1  UNL1        0.1056
      8 O         144.0538  139.5309  159.2569 O.3     1  UNL1       -0.3793
      9 C         144.0398  139.3904  160.7503 C.3     1  UNL1        0.1700
     10 H         143.7396  138.7075  158.8517 H       1  UNL1        0.2106
     11 C         143.5822  138.1075  161.3786 C.3     1  UNL1        0.2358
     12 O         142.1722  137.6362  161.1799 O.3     1  UNL1       -0.4728
     13 C         141.1993  137.6788  162.3209 C.ar    1  UNL1        0.1387
     14 C         141.6882  137.5172  163.7298 C.ar    1  UNL1        0.0378
     15 C         140.7153  137.5597  164.8707 C.ar    1  UNL1        0.0145
     16 C         139.2536  137.7639  164.6027 C.ar    1  UNL1        0.0579
     17 CL        138.2808  137.8065  165.7437 Cl      1  UNL1       -0.0822
     18 C         138.7648  137.9255  163.1939 C.ar    1  UNL1        0.0145
     19 C         139.7376  137.8829  162.0530 C.ar    1  UNL1        0.0378
     20 C         140.6923  142.9232  165.6044 C.3     1  UNL1        0.0992
     21 C         140.4107  142.2088  166.8929 C.ar    1  UNL1       -0.0061
     22 C         140.5444  142.9357  168.1982 C.ar    1  UNL1       -0.0021
     23 C         140.2628  142.2213  169.4867 C.ar    1  UNL1        0.0111
     24 C         139.8474  140.7800  169.4700 C.ar    1  UNL1        0.0577
     25 CL        139.5658  140.0657  170.7585 Cl      1  UNL1       -0.0822
     26 C         139.7136  140.0532  168.1647 C.ar    1  UNL1        0.0111
     27 C         139.9953  140.7676  166.8762 C.ar    1  UNL1       -0.0021
@<TRIPOS>BOND
     1     9     8    1
     2     9    11    1
     3    11    12    1
     4    12    13    1
     5    13    14   ar
     6    14    15   ar
     7    15    16   ar
     8    16    17    1
     9    16    18   ar
    10    18    19   ar
    11     9     7    1
    12     7     1    1
    13     1     2    1
    14     2     3    1
    15     3     4    1
    16     4    20    1
    17    20    21    1
    18    21    22   ar
    19    22    23   ar
    20    23    24   ar
    21    24    25    1
    22    24    26   ar
    23    26    27   ar
    24     4     5    1
    25     5     6    1
    26    19    13   ar
    27     6     1    1
    28    27    21   ar
    29     8    10    1
@<TRIPOS>MOLECULE
*****
 27 29 0 0 0
SMALL
GASTEIGER

@<TRIPOS>ATOM
      1 N         139.8451  142.7201  161.1042 N.3     1  UNL1       -0.2682
      2 C         141.1663  142.0749  161.4012 C.3     1  UNL1        0.0897
      3 C         141.2369  140.9090  162.3422 C.3     1  UNL1        0.0899
      4 N         139.9864  140.3882  162.9863 N.3     1  UNL1       -0.2665
      5 C         138.6652  141.0333  162.6894 C.3     1  UNL1        0.0899
      6 C         138.5945  142.1993  161.7483 C.3     1  UNL1        0.0897
      7 C         139.7744  143.8861  160.1632 C.3     1  UNL1        0.1056
      8 O         141.7315  145.5611  159.8253 O.3     1  UNL1       -0.3793
      9 C         140.4560  145.1753  160.5141 C.3     1  UNL1        0.1700
     10 H         142.0373  146.4161  160.1663 H       1  UNL1        0.2106
     11 C         139.8622  146.0790  161.5538 C.3     1  UNL1        0.2358
     12 O         139.5889  145.5572  162.9333 O.3     1  UNL1       -0.4728
     13 C         140.6553  144.8092  163.6771 C.ar    1  UNL1        0.1387
     14 C         142.1018  145.1094  163.4177 C.ar    1  UNL1        0.0378
     15 C         143.1681  144.3614  164.1616 C.ar    1  UNL1        0.0145
     16 C         142.7879  143.3131  165.1649 C.ar    1  UNL1        0.0579
     17 CL        143.8543  142.5651  165.9088 Cl      1  UNL1       -0.0822
     18 C         141.3414  143.0129  165.4243 C.ar    1  UNL1        0.0145
     19 C         140.2751  143.7609  164.6805 C.ar    1  UNL1        0.0378
     20 C         140.0570  139.2222  163.9273 C.3     1  UNL1        0.0992
     21 C         140.7000  139.3824  165.2730 C.ar    1  UNL1       -0.0061
     22 C         142.1548  139.0634  165.4519 C.ar    1  UNL1       -0.0021
     23 C         142.7978  139.2236  166.7975 C.ar    1  UNL1        0.0111
     24 C         141.9860  139.7027  167.9644 C.ar    1  UNL1        0.0577
     25 CL        142.6290  139.8628  169.3101 Cl      1  UNL1       -0.0822
     26 C         140.5313  140.0217  167.7856 C.ar    1  UNL1        0.0111
     27 C         139.8883  139.8615  166.4398 C.ar    1  UNL1       -0.0021
@<TRIPOS>BOND
     1     9     8    1
     2     9    11    1
     3    11    12    1
     4    12    13    1
     5    13    14   ar
     6    14    15   ar
     7    15    16   ar
     8    16    17    1
     9    16    18   ar
    10    18    19   ar
    11     9     7    1
    12     7     1    1
    13     1     2    1
    14     2     3    1
    15     3     4    1
    16     4    20    1
    17    20    21    1
    18    21    22   ar
    19    22    23   ar
    20    23    24   ar
    21    24    25    1
    22    24    26   ar
    23    26    27   ar
    24     4     5    1
    25     5     6    1
    26    19    13   ar
    27     6     1    1
    28    27    21   ar
    29     8    10    1
@<TRIPOS>MOLECULE
*****
 27 29 0 0 0
SMALL
GASTEIGER

@<TRIPOS>ATOM
      1 N         140.3095  139.5282  159.9045 N.3     1  UNL1       -0.2682
      2 C         140.3960  140.9011  160.5027 C.3     1  UNL1        0.0897
      3 C         139.5703  141.2483  161.7059 C.3     1  UNL1        0.0899
      4 N         138.6581  140.2226  162.3109 N.3     1  UNL1       -0.2665
      5 C         138.5716  138.8498  161.7127 C.3     1  UNL1        0.0899
      6 C         139.3973  138.5025  160.5095 C.3     1  UNL1        0.0897
      7 C         141.1352  139.1810  158.7013 C.3     1  UNL1        0.1056
      8 O         143.2816  138.1197  157.6930 O.3     1  UNL1       -0.3793
      9 C         142.5299  138.6570  158.8747 C.3     1  UNL1        0.1700
     10 H         144.1609  137.8242  157.9763 H       1  UNL1        0.2106
     11 C         143.1731  138.6704  160.2298 C.3     1  UNL1        0.2358
     12 O         142.7173  137.7076  161.2858 O.3     1  UNL1       -0.4728
     13 C         142.7774  138.0979  162.7329 C.ar    1  UNL1        0.1387
     14 C         141.6728  137.6958  163.6646 C.ar    1  UNL1        0.0378
     15 C         141.7329  138.0862  165.1117 C.ar    1  UNL1        0.0145
     16 C         142.8976  138.8786  165.6270 C.ar    1  UNL1        0.0579
     17 CL        142.9577  139.2689  167.0742 Cl      1  UNL1       -0.0822
     18 C         144.0022  139.2807  164.6953 C.ar    1  UNL1        0.0145
     19 C         143.9421  138.8903  163.2483 C.ar    1  UNL1        0.0378
     20 C         137.8325  140.5698  163.5141 C.3     1  UNL1        0.0992
     21 C         138.4138  140.4265  164.8894 C.ar    1  UNL1       -0.0061
     22 C         138.0171  139.2668  165.7542 C.ar    1  UNL1       -0.0021
     23 C         138.5984  139.1234  167.1295 C.ar    1  UNL1        0.0111
     24 C         139.5765  140.1397  167.6401 C.ar    1  UNL1        0.0577
     25 CL        140.1577  139.9963  169.0154 Cl      1  UNL1       -0.0822
     26 C         139.9732  141.2993  166.7753 C.ar    1  UNL1        0.0111
     27 C         139.3918  141.4427  165.3999 C.ar    1  UNL1       -0.0021
@<TRIPOS>BOND
     1     9     8    1
     2     9    11    1
     3    11    12    1
     4    12    13    1
     5    13    14   ar
     6    14    15   ar
     7    15    16   ar
     8    16    17    1
     9    16    18   ar
    10    18    19   ar
    11     9     7    1
    12     7     1    1
    13     1     2    1
    14     2     3    1
    15     3     4    1
    16     4    20    1
    17    20    21    1
    18    21    22   ar
    19    22    23   ar
    20    23    24   ar
    21    24    25    1
    22    24    26   ar
    23    26    27   ar
    24     4     5    1
    25     5     6    1
    26    19    13   ar
    27     6     1    1
    28    27    21   ar
    29     8    10    1
@<TRIPOS>MOLECULE
*****
 27 29 0 0 0
SMALL
GASTEIGER

@<TRIPOS>ATOM
      1 N         140.5988  138.4965  162.1603 N.3     1  UNL1       -0.2682
      2 C         140.5163  137.4305  163.2124 C.3     1  UNL1        0.0897
      3 C         141.1341  137.6575  164.5602 C.3     1  UNL1        0.0899
      4 N         141.8345  138.9506  164.8560 N.3     1  UNL1       -0.2665
      5 C         141.9170  140.0166  163.8040 C.3     1  UNL1        0.0899
      6 C         141.2991  139.7896  162.4561 C.3     1  UNL1        0.0897
      7 C         139.9809  138.2695  160.8124 C.3     1  UNL1        0.1056
      8 O         138.8034  139.7290  159.0143 O.3     1  UNL1       -0.3793
      9 C         138.8095  139.0981  160.3752 C.3     1  UNL1        0.1700
     10 H         137.9795  140.2262  158.8922 H       1  UNL1        0.2106
     11 C         137.6443  139.2959  161.2989 C.3     1  UNL1        0.2358
     12 O         137.1401  140.6794  161.5846 O.3     1  UNL1       -0.4728
     13 C         137.7421  141.4816  162.6999 C.ar    1  UNL1        0.1387
     14 C         138.1610  140.8032  163.9705 C.ar    1  UNL1        0.0378
     15 C         138.7630  141.6055  165.0857 C.ar    1  UNL1        0.0145
     16 C         138.9462  143.0862  164.9305 C.ar    1  UNL1        0.0579
     17 CL        139.5482  143.8884  166.0459 Cl      1  UNL1       -0.0822
     18 C         138.5273  143.7646  163.6600 C.ar    1  UNL1        0.0145
     19 C         137.9253  142.9623  162.5447 C.ar    1  UNL1        0.0378
     20 C         142.4523  139.1776  166.2038 C.3     1  UNL1        0.0992
     21 C         141.8641  140.1943  167.1369 C.ar    1  UNL1       -0.0061
     22 C         142.6254  141.4461  167.4585 C.ar    1  UNL1       -0.0021
     23 C         142.0373  142.4627  168.3915 C.ar    1  UNL1        0.0111
     24 C         140.6879  142.2276  169.0029 C.ar    1  UNL1        0.0577
     25 CL        140.0998  143.2442  169.9359 Cl      1  UNL1       -0.0822
     26 C         139.9266  140.9758  168.6813 C.ar    1  UNL1        0.0111
     27 C         140.5148  139.9591  167.7482 C.ar    1  UNL1       -0.0021
@<TRIPOS>BOND
     1     9     8    1
     2     9    11    1
     3    11    12    1
     4    12    13    1
     5    13    14   ar
     6    14    15   ar
     7    15    16   ar
     8    16    17    1
     9    16    18   ar
    10    18    19   ar
    11     9     7    1
    12     7     1    1
    13     1     2    1
    14     2     3    1
    15     3     4    1
    16     4    20    1
    17    20    21    1
    18    21    22   ar
    19    22    23   ar
    20    23    24   ar
    21    24    25    1
    22    24    26   ar
    23    26    27   ar
    24     4     5    1
    25     5     6    1
    26    19    13   ar
    27     6     1    1
    28    27    21   ar
    29     8    10    1
