@<TRIPOS>MOLECULE
*****
 39 43 0 0 0
SMALL
GASTEIGER

@<TRIPOS>ATOM
      1 C         139.8605  145.0895  161.2447 C.ar    1  UNL1        0.2221
      2 N         140.0786  145.9603  160.0430 N.ar    1  UNL1       -0.2119
      3 C         140.1292  145.3498  158.6737 C.ar    1  UNL1        0.1050
      4 C         139.9616  143.8687  158.5062 C.ar    1  UNL1        0.0596
      5 C         139.7436  142.9979  159.7080 C.ar    1  UNL1        0.1683
      6 N         139.6930  143.6083  161.0772 N.ar    1  UNL1       -0.1944
      7 N         139.5760  141.5168  159.5405 N.ar    1  UNL1       -0.2092
      8 C         139.5705  140.4998  160.6432 C.ar    1  UNL1        0.1179
      9 C         139.3757  139.1470  160.0252 C.ar    1  UNL1        0.0853
     10 C         139.2608  139.3279  158.5405 C.ar    1  UNL1        0.1364
     11 N         139.3846  140.7925  158.2410 N.ar    1  UNL1       -0.1608
     12 N         139.3077  137.8424  160.7623 N.pl3   1  UNL1       -0.3303
     13 H         139.0346  137.0234  160.2892 H       1  UNL1        0.1469
     14 C         139.6558  137.7857  162.2202 C.3     1  UNL1        0.0884
     15 C         138.5923  138.0083  163.2545 C.3     1  UNL1        0.0530
     16 C         138.9404  137.9516  164.7124 C.3     1  UNL1        0.1440
     17 O         140.3519  137.6724  165.1362 O.3     1  UNL1       -0.3522
     18 C         141.4155  137.4498  164.1020 C.3     1  UNL1        0.1592
     19 C         141.0673  137.5065  162.6440 C.3     1  UNL1        0.0990
     20 N         142.1308  137.2839  161.6099 N.3     1  UNL1       -0.3189
     21 H         143.0231  137.1091  162.0720 H       1  UNL1        0.1189
     22 H         142.2099  138.1122  161.0199 H       1  UNL1        0.1189
     23 N         139.8099  145.6999  162.6139 N.pl3   1  UNL1       -0.2825
     24 H         139.6335  146.6630  162.7174 H       1  UNL1        0.1551
     25 C         142.8099  142.6761  165.8203 C.ar    1  UNL1        0.1554
     26 N         142.4257  141.9712  167.0874 N.ar    1  UNL1       -0.1646
     27 N         140.9761  142.2514  167.3523 N.ar    1  UNL1       -0.2487
     28 C         140.1782  141.7428  168.5163 C.3     1  UNL1        0.1537
     29 C         140.4644  143.1294  166.2490 C.ar    1  UNL1        0.0796
     30 C         139.1129  143.7237  165.9842 C.ar    1  UNL1        0.0201
     31 C         138.8948  144.5805  164.7725 C.ar    1  UNL1        0.0162
     32 C         140.0281  144.8430  163.8257 C.ar    1  UNL1        0.0506
     33 C         141.3796  144.2487  164.0904 C.ar    1  UNL1        0.0179
     34 C         141.5978  143.3918  165.3021 C.ar    1  UNL1        0.0423
     35 C         145.8858  141.5830  163.5632 C.3     1  UNL1        0.1110
     36 N         144.5279  141.5923  164.2003 N.am    1  UNL1       -0.2979
     37 C         144.1678  142.6668  165.1831 C.2     1  UNL1        0.2654
     38 O         145.1657  143.7320  165.5287 O.2     1  UNL1       -0.2684
     39 H         143.8729  140.8931  163.9734 H       1  UNL1        0.1498
@<TRIPOS>BOND
     1    35    36    1
     2    36    37   am
     3    37    38    2
     4    37    25    1
     5    25    26   ar
     6    26    27   ar
     7    27    28    1
     8    27    29   ar
     9    29    30   ar
    10    30    31   ar
    11    31    32   ar
    12    32    23    1
    13    23     1    1
    14     1     2   ar
    15     2     3   ar
    16     3     4   ar
    17     4     5   ar
    18     5     7    1
    19     7     8   ar
    20     8     9   ar
    21     9    12    1
    22    14    12    1
    23    14    15    1
    24    15    16    1
    25    16    17    1
    26    17    18    1
    27    18    19    1
    28    19    20    1
    29     9    10   ar
    30    10    11   ar
    31     5     6   ar
    32    32    33   ar
    33    33    34   ar
    34    34    25   ar
    35    34    29   ar
    36     6     1   ar
    37    11     7   ar
    38    19    14    1
    39    36    39    1
    40    23    24    1
    41    12    13    1
    42    20    21    1
    43    20    22    1
@<TRIPOS>MOLECULE
*****
 39 43 0 0 0
SMALL
GASTEIGER

@<TRIPOS>ATOM
      1 C         143.9651  143.3282  161.9541 C.ar    1  UNL1        0.2221
      2 N         143.9796  144.6787  162.6067 N.ar    1  UNL1       -0.2119
      3 C         143.8559  144.7927  164.0973 C.ar    1  UNL1        0.1050
      4 C         143.7177  143.5563  164.9352 C.ar    1  UNL1        0.0596
      5 C         143.7032  142.2058  164.2826 C.ar    1  UNL1        0.1683
      6 N         143.8270  142.0917  162.7921 N.ar    1  UNL1       -0.1944
      7 N         143.5650  140.9694  165.1204 N.ar    1  UNL1       -0.2092
      8 C         143.1127  140.9188  166.5497 C.ar    1  UNL1        0.1179
      9 C         143.1230  139.4846  166.9888 C.ar    1  UNL1        0.0853
     10 C         143.5818  138.6487  165.8308 C.ar    1  UNL1        0.1364
     11 N         143.8550  139.5663  164.6761 N.ar    1  UNL1       -0.1608
     12 N         142.7416  138.9756  168.3472 N.pl3   1  UNL1       -0.3303
     13 H         143.1270  138.1345  168.6838 H       1  UNL1        0.1469
     14 C         141.7730  139.7481  169.1929 C.3     1  UNL1        0.0884
     15 C         140.3982  140.0492  168.6735 C.3     1  UNL1        0.0530
     16 C         139.4296  140.8217  169.5192 C.3     1  UNL1        0.1440
     17 O         139.8357  141.2931  170.8840 O.3     1  UNL1       -0.3522
     18 C         141.2104  140.9920  171.4034 C.3     1  UNL1        0.1592
     19 C         142.1790  140.2195  170.5577 C.3     1  UNL1        0.0990
     20 N         143.5536  139.9184  171.0770 N.3     1  UNL1       -0.3189
     21 H         143.6569  140.3106  172.0129 H       1  UNL1        0.1189
     22 H         144.2496  140.3317  170.4564 H       1  UNL1        0.1189
     23 N         144.0889  143.2142  160.4636 N.pl3   1  UNL1       -0.2825
     24 H         144.9788  143.2061  160.0427 H       1  UNL1        0.1551
     25 C         138.8193  142.8115  159.7614 C.ar    1  UNL1        0.1554
     26 N         138.0385  142.7389  158.4827 N.ar    1  UNL1       -0.1646
     27 N         139.0107  142.7992  157.3420 N.ar    1  UNL1       -0.2487
     28 C         138.6624  142.7569  155.8836 C.3     1  UNL1        0.1537
     29 C         140.3923  142.9090  157.9157 C.ar    1  UNL1        0.0796
     30 C         141.7427  143.0031  157.2697 C.ar    1  UNL1        0.0201
     31 C         142.9749  143.1048  158.1190 C.ar    1  UNL1        0.0162
     32 C         142.8566  143.1124  159.6143 C.ar    1  UNL1        0.0506
     33 C         141.5062  143.0184  160.2603 C.ar    1  UNL1        0.0179
     34 C         140.2740  142.9167  159.4110 C.ar    1  UNL1        0.0423
     35 C         137.7741  143.9684  163.4111 C.3     1  UNL1        0.1110
     36 N         138.3474  143.9960  162.0252 N.am    1  UNL1       -0.2979
     37 C         138.2460  142.7839  161.1473 C.2     1  UNL1        0.2654
     38 O         137.5714  141.5443  161.6553 O.2     1  UNL1       -0.2684
     39 H         138.7902  144.8097  161.6918 H       1  UNL1        0.1498
@<TRIPOS>BOND
     1    35    36    1
     2    36    37   am
     3    37    38    2
     4    37    25    1
     5    25    26   ar
     6    26    27   ar
     7    27    28    1
     8    27    29   ar
     9    29    30   ar
    10    30    31   ar
    11    31    32   ar
    12    32    23    1
    13    23     1    1
    14     1     2   ar
    15     2     3   ar
    16     3     4   ar
    17     4     5   ar
    18     5     7    1
    19     7     8   ar
    20     8     9   ar
    21     9    12    1
    22    14    12    1
    23    14    15    1
    24    15    16    1
    25    16    17    1
    26    17    18    1
    27    18    19    1
    28    19    20    1
    29     9    10   ar
    30    10    11   ar
    31     5     6   ar
    32    32    33   ar
    33    33    34   ar
    34    34    25   ar
    35    34    29   ar
    36     6     1   ar
    37    11     7   ar
    38    19    14    1
    39    36    39    1
    40    23    24    1
    41    12    13    1
    42    20    21    1
    43    20    22    1
@<TRIPOS>MOLECULE
*****
 39 43 0 0 0
SMALL
GASTEIGER

@<TRIPOS>ATOM
      1 C         144.0997  140.5453  161.0954 C.ar    1  UNL1        0.2221
      2 N         144.0264  139.2659  160.3157 N.ar    1  UNL1       -0.2119
      3 C         143.5508  138.0084  160.9810 C.ar    1  UNL1        0.1050
      4 C         143.1486  138.0303  162.4259 C.ar    1  UNL1        0.0596
      5 C         143.2219  139.3096  163.2055 C.ar    1  UNL1        0.1683
      6 N         143.6974  140.5671  162.5403 N.ar    1  UNL1       -0.1944
      7 N         142.8197  139.3315  164.6504 N.ar    1  UNL1       -0.2092
      8 C         141.4948  139.7825  165.1901 C.ar    1  UNL1        0.1179
      9 C         141.5280  139.6359  166.6825 C.ar    1  UNL1        0.0853
     10 C         142.8735  139.0943  167.0652 C.ar    1  UNL1        0.1364
     11 N         143.6717  138.9062  165.8093 N.ar    1  UNL1       -0.1608
     12 N         140.4118  139.9720  167.6265 N.pl3   1  UNL1       -0.3303
     13 H         139.5473  139.5067  167.5521 H       1  UNL1        0.1469
     14 C         140.6126  141.0168  168.6839 C.3     1  UNL1        0.0884
     15 C         140.4590  142.4692  168.3418 C.3     1  UNL1        0.0530
     16 C         140.6598  143.5141  169.3992 C.3     1  UNL1        0.1440
     17 O         141.0144  143.1065  170.7985 O.3     1  UNL1       -0.3522
     18 C         141.1680  141.6541  171.1406 C.3     1  UNL1        0.1592
     19 C         140.9672  140.6092  170.0832 C.3     1  UNL1        0.0990
     20 N         141.1208  139.1569  170.4252 N.3     1  UNL1       -0.3189
     21 H         141.3612  139.0636  171.4121 H       1  UNL1        0.1189
     22 H         141.8620  138.7498  169.8548 H       1  UNL1        0.1189
     23 N         144.5752  141.8028  160.4302 N.pl3   1  UNL1       -0.2825
     24 H         145.5387  141.9977  160.3774 H       1  UNL1        0.1551
     25 C         140.3043  144.9818  160.7079 C.ar    1  UNL1        0.1554
     26 N         139.6819  145.8253  159.6350 N.ar    1  UNL1       -0.1646
     27 N         140.4811  145.6416  158.3790 N.ar    1  UNL1       -0.2487
     28 C         140.2114  146.2994  157.0582 C.3     1  UNL1        0.1537
     29 C         141.5974  144.6846  158.6757 C.ar    1  UNL1        0.0796
     30 C         142.6993  144.1318  157.8211 C.ar    1  UNL1        0.0201
     31 C         143.6918  143.1712  158.4060 C.ar    1  UNL1        0.0162
     32 C         143.5825  142.7634  159.8453 C.ar    1  UNL1        0.0506
     33 C         142.4807  143.3162  160.6999 C.ar    1  UNL1        0.0179
     34 C         141.4881  144.2768  160.1150 C.ar    1  UNL1        0.0423
     35 C         137.9318  144.3442  163.8248 C.3     1  UNL1        0.1110
     36 N         138.4094  144.4620  162.4078 N.am    1  UNL1       -0.2979
     37 C         139.8267  144.8640  162.1249 C.2     1  UNL1        0.2654
     38 O         140.7661  145.1482  163.2591 O.2     1  UNL1       -0.2684
     39 H         137.7928  144.2754  161.6633 H       1  UNL1        0.1498
@<TRIPOS>BOND
     1    35    36    1
     2    36    37   am
     3    37    38    2
     4    37    25    1
     5    25    26   ar
     6    26    27   ar
     7    27    28    1
     8    27    29   ar
     9    29    30   ar
    10    30    31   ar
    11    31    32   ar
    12    32    23    1
    13    23     1    1
    14     1     2   ar
    15     2     3   ar
    16     3     4   ar
    17     4     5   ar
    18     5     7    1
    19     7     8   ar
    20     8     9   ar
    21     9    12    1
    22    14    12    1
    23    14    15    1
    24    15    16    1
    25    16    17    1
    26    17    18    1
    27    18    19    1
    28    19    20    1
    29     9    10   ar
    30    10    11   ar
    31     5     6   ar
    32    32    33   ar
    33    33    34   ar
    34    34    25   ar
    35    34    29   ar
    36     6     1   ar
    37    11     7   ar
    38    19    14    1
    39    36    39    1
    40    23    24    1
    41    12    13    1
    42    20    21    1
    43    20    22    1
@<TRIPOS>MOLECULE
*****
 39 43 0 0 0
SMALL
GASTEIGER

@<TRIPOS>ATOM
      1 C         144.1503  142.6771  160.3926 C.ar    1  UNL1        0.2221
      2 N         144.9908  142.7275  159.1512 N.ar    1  UNL1       -0.2119
      3 C         144.6586  141.8456  157.9842 C.ar    1  UNL1        0.1050
      4 C         143.4859  140.9133  158.0585 C.ar    1  UNL1        0.0596
      5 C         142.6454  140.8629  159.2999 C.ar    1  UNL1        0.1683
      6 N         142.9775  141.7448  160.4669 N.ar    1  UNL1       -0.1944
      7 N         141.4726  139.9307  159.3742 N.ar    1  UNL1       -0.2092
      8 C         140.6711  139.6183  160.6030 C.ar    1  UNL1        0.1179
      9 C         139.5986  138.6417  160.2211 C.ar    1  UNL1        0.0853
     10 C         139.7374  138.3504  158.7561 C.ar    1  UNL1        0.1364
     11 N         140.8956  139.1470  158.2328 N.ar    1  UNL1       -0.1608
     12 N         138.5683  138.0587  161.1422 N.pl3   1  UNL1       -0.3303
     13 H         137.8949  137.4309  160.7933 H       1  UNL1        0.1469
     14 C         138.5640  138.4321  162.5950 C.3     1  UNL1        0.0884
     15 C         139.1728  137.5088  163.6085 C.3     1  UNL1        0.0530
     16 C         139.1685  137.8822  165.0613 C.3     1  UNL1        0.1440
     17 O         138.5554  139.1787  165.5006 O.3     1  UNL1       -0.3522
     18 C         137.9466  140.1020  164.4871 C.3     1  UNL1        0.1592
     19 C         137.9509  139.7286  163.0343 C.3     1  UNL1        0.0990
     20 N         137.3422  140.6518  162.0210 N.3     1  UNL1       -0.3189
     21 H         136.9757  141.4792  162.4916 H       1  UNL1        0.1189
     22 H         136.5835  140.1722  161.5365 H       1  UNL1        0.1189
     23 N         144.4825  143.5590  161.5596 N.pl3   1  UNL1       -0.2825
     24 H         145.0274  144.3679  161.4259 H       1  UNL1        0.1551
     25 C         140.7307  143.3336  165.3408 C.ar    1  UNL1        0.1554
     26 N         140.8251  142.7892  166.7353 N.ar    1  UNL1       -0.1646
     27 N         142.2205  142.2783  166.9399 N.ar    1  UNL1       -0.2487
     28 C         142.7542  141.6492  168.1927 C.3     1  UNL1        0.1537
     29 C         142.9885  142.5068  165.6719 C.ar    1  UNL1        0.0796
     30 C         144.4072  142.2053  165.2895 C.ar    1  UNL1        0.0201
     31 C         144.9052  142.5560  163.9187 C.ar    1  UNL1        0.0162
     32 C         143.9844  143.2083  162.9304 C.ar    1  UNL1        0.0506
     33 C         142.5657  143.5098  163.3128 C.ar    1  UNL1        0.0179
     34 C         142.0677  143.1591  164.6835 C.ar    1  UNL1        0.0423
     35 C         137.7561  144.0036  162.8004 C.3     1  UNL1        0.1110
     36 N         138.9738  143.3921  163.4276 N.am    1  UNL1       -0.2979
     37 C         139.5131  143.9451  164.7136 C.2     1  UNL1        0.2654
     38 O         138.8347  145.1095  165.3721 O.2     1  UNL1       -0.2684
     39 H         139.4190  142.6278  162.9954 H       1  UNL1        0.1498
@<TRIPOS>BOND
     1    35    36    1
     2    36    37   am
     3    37    38    2
     4    37    25    1
     5    25    26   ar
     6    26    27   ar
     7    27    28    1
     8    27    29   ar
     9    29    30   ar
    10    30    31   ar
    11    31    32   ar
    12    32    23    1
    13    23     1    1
    14     1     2   ar
    15     2     3   ar
    16     3     4   ar
    17     4     5   ar
    18     5     7    1
    19     7     8   ar
    20     8     9   ar
    21     9    12    1
    22    14    12    1
    23    14    15    1
    24    15    16    1
    25    16    17    1
    26    17    18    1
    27    18    19    1
    28    19    20    1
    29     9    10   ar
    30    10    11   ar
    31     5     6   ar
    32    32    33   ar
    33    33    34   ar
    34    34    25   ar
    35    34    29   ar
    36     6     1   ar
    37    11     7   ar
    38    19    14    1
    39    36    39    1
    40    23    24    1
    41    12    13    1
    42    20    21    1
    43    20    22    1
@<TRIPOS>MOLECULE
*****
 39 43 0 0 0
SMALL
GASTEIGER

@<TRIPOS>ATOM
      1 C         138.3079  139.8695  162.0863 C.ar    1  UNL1        0.2221
      2 N         137.9090  138.4260  162.0029 N.ar    1  UNL1       -0.2119
      3 C         138.5760  137.4115  162.8839 C.ar    1  UNL1        0.1050
      4 C         139.6418  137.8406  163.8482 C.ar    1  UNL1        0.0596
      5 C         140.0407  139.2842  163.9315 C.ar    1  UNL1        0.1683
      6 N         139.3738  140.2986  163.0506 N.ar    1  UNL1       -0.1944
      7 N         141.1065  139.7133  164.8958 N.ar    1  UNL1       -0.2092
      8 C         141.2596  139.2372  166.3100 C.ar    1  UNL1        0.1179
      9 C         142.4541  139.9235  166.9034 C.ar    1  UNL1        0.0853
     10 C         143.0392  140.8238  165.8560 C.ar    1  UNL1        0.1364
     11 N         142.2063  140.6939  164.6152 N.ar    1  UNL1       -0.1608
     12 N         142.9724  139.7415  168.2992 N.pl3   1  UNL1       -0.3303
     13 H         143.4938  138.9389  168.5299 H       1  UNL1        0.1469
     14 C         142.6964  140.7824  169.3434 C.3     1  UNL1        0.0884
     15 C         143.4683  142.0686  169.3428 C.3     1  UNL1        0.0530
     16 C         143.1923  143.1095  170.3870 C.3     1  UNL1        0.1440
     17 O         142.1444  142.8642  171.4319 O.3     1  UNL1       -0.3522
     18 C         141.3725  141.5779  171.4326 C.3     1  UNL1        0.1592
     19 C         141.6485  140.5371  170.3883 C.3     1  UNL1        0.0990
     20 N         140.8767  139.2510  170.3890 N.3     1  UNL1       -0.3189
     21 H         140.2117  139.2540  171.1624 H       1  UNL1        0.1189
     22 H         141.5210  138.4678  170.4976 H       1  UNL1        0.1189
     23 N         137.6410  140.8840  161.2054 N.pl3   1  UNL1       -0.2825
     24 H         136.6594  140.9029  161.1321 H       1  UNL1        0.1551
     25 C         141.3266  144.7167  160.8167 C.ar    1  UNL1        0.1554
     26 N         141.8158  145.4378  159.5958 N.ar    1  UNL1       -0.1646
     27 N         141.0743  144.8966  158.4095 N.ar    1  UNL1       -0.2487
     28 C         141.2495  145.3341  156.9855 C.3     1  UNL1        0.1537
     29 C         140.1269  143.8409  158.8972 C.ar    1  UNL1        0.0796
     30 C         139.1424  142.9664  158.1789 C.ar    1  UNL1        0.0201
     31 C         138.3138  141.9809  158.9483 C.ar    1  UNL1        0.0162
     32 C         138.4697  141.8697  160.4360 C.ar    1  UNL1        0.0506
     33 C         139.4542  142.7441  161.1543 C.ar    1  UNL1        0.0179
     34 C         140.2828  143.7297  160.3850 C.ar    1  UNL1        0.0423
     35 C         143.7387  145.2555  163.9219 C.3     1  UNL1        0.1110
     36 N         143.2669  145.0294  162.5160 N.am    1  UNL1       -0.2979
     37 C         141.7984  144.9427  162.2225 C.2     1  UNL1        0.2654
     38 O         140.8018  145.0822  163.3348 O.2     1  UNL1       -0.2684
     39 H         143.9211  144.9378  161.7860 H       1  UNL1        0.1498
@<TRIPOS>BOND
     1    35    36    1
     2    36    37   am
     3    37    38    2
     4    37    25    1
     5    25    26   ar
     6    26    27   ar
     7    27    28    1
     8    27    29   ar
     9    29    30   ar
    10    30    31   ar
    11    31    32   ar
    12    32    23    1
    13    23     1    1
    14     1     2   ar
    15     2     3   ar
    16     3     4   ar
    17     4     5   ar
    18     5     7    1
    19     7     8   ar
    20     8     9   ar
    21     9    12    1
    22    14    12    1
    23    14    15    1
    24    15    16    1
    25    16    17    1
    26    17    18    1
    27    18    19    1
    28    19    20    1
    29     9    10   ar
    30    10    11   ar
    31     5     6   ar
    32    32    33   ar
    33    33    34   ar
    34    34    25   ar
    35    34    29   ar
    36     6     1   ar
    37    11     7   ar
    38    19    14    1
    39    36    39    1
    40    23    24    1
    41    12    13    1
    42    20    21    1
    43    20    22    1
@<TRIPOS>MOLECULE
*****
 39 43 0 0 0
SMALL
GASTEIGER

@<TRIPOS>ATOM
      1 C         143.8497  139.9786  159.7228 C.ar    1  UNL1        0.2221
      2 N         144.1149  139.5386  158.3135 N.ar    1  UNL1       -0.2119
      3 C         143.5677  140.3324  157.1643 C.ar    1  UNL1        0.1050
      4 C         142.7553  141.5662  157.4245 C.ar    1  UNL1        0.0596
      5 C         142.4901  142.0063  158.8338 C.ar    1  UNL1        0.1683
      6 N         143.0373  141.2125  159.9829 N.ar    1  UNL1       -0.1944
      7 N         141.6777  143.2401  159.0939 N.ar    1  UNL1       -0.2092
      8 C         140.9584  143.5696  160.3683 C.ar    1  UNL1        0.1179
      9 C         140.2781  144.8942  160.1874 C.ar    1  UNL1        0.0853
     10 C         140.5770  145.3833  158.8011 C.ar    1  UNL1        0.1364
     11 N         141.4420  144.3610  158.1254 N.ar    1  UNL1       -0.1608
     12 N         139.4452  145.6049  161.2126 N.pl3   1  UNL1       -0.3303
     13 H         139.0563  146.4855  161.0064 H       1  UNL1        0.1469
     14 C         139.2047  144.9739  162.5520 C.3     1  UNL1        0.0884
     15 C         137.9260  144.2347  162.8141 C.3     1  UNL1        0.0530
     16 C         137.6855  143.6036  164.1535 C.3     1  UNL1        0.1440
     17 O         138.7237  143.7118  165.2308 O.3     1  UNL1       -0.3522
     18 C         140.0024  144.4511  164.9687 C.3     1  UNL1        0.1592
     19 C         140.2428  145.0821  163.6293 C.3     1  UNL1        0.0990
     20 N         141.5214  145.8212  163.3672 N.3     1  UNL1       -0.3189
     21 H         142.1065  145.7952  164.2023 H       1  UNL1        0.1189
     22 H         141.3111  146.7906  163.1294 H       1  UNL1        0.1189
     23 N         144.3969  139.1849  160.8719 N.pl3   1  UNL1       -0.2825
     24 H         145.0869  138.5008  160.7133 H       1  UNL1        0.1551
     25 C         140.6650  139.0200  164.6758 C.ar    1  UNL1        0.1554
     26 N         140.7439  139.4878  166.0988 N.ar    1  UNL1       -0.1646
     27 N         142.1156  140.0504  166.3264 N.ar    1  UNL1       -0.2487
     28 C         142.6285  140.6312  167.6108 C.3     1  UNL1        0.1537
     29 C         142.8845  139.9304  165.0440 C.ar    1  UNL1        0.0796
     30 C         144.2852  140.3188  164.6734 C.ar    1  UNL1        0.0201
     31 C         144.7892  140.0702  163.2827 C.ar    1  UNL1        0.0162
     32 C         143.8927  139.4334  162.2626 C.ar    1  UNL1        0.0506
     33 C         142.4921  139.0451  162.6332 C.ar    1  UNL1        0.0179
     34 C         141.9880  139.2936  164.0239 C.ar    1  UNL1        0.0423
     35 C         137.8938  138.1554  161.9697 C.3     1  UNL1        0.1110
     36 N         139.0863  138.7860  162.6257 N.am    1  UNL1       -0.2979
     37 C         139.4726  138.3894  164.0199 C.2     1  UNL1        0.2654
     38 O         138.6664  137.3622  164.7579 O.2     1  UNL1       -0.2684
     39 H         139.6154  139.4603  162.1413 H       1  UNL1        0.1498
@<TRIPOS>BOND
     1    35    36    1
     2    36    37   am
     3    37    38    2
     4    37    25    1
     5    25    26   ar
     6    26    27   ar
     7    27    28    1
     8    27    29   ar
     9    29    30   ar
    10    30    31   ar
    11    31    32   ar
    12    32    23    1
    13    23     1    1
    14     1     2   ar
    15     2     3   ar
    16     3     4   ar
    17     4     5   ar
    18     5     7    1
    19     7     8   ar
    20     8     9   ar
    21     9    12    1
    22    14    12    1
    23    14    15    1
    24    15    16    1
    25    16    17    1
    26    17    18    1
    27    18    19    1
    28    19    20    1
    29     9    10   ar
    30    10    11   ar
    31     5     6   ar
    32    32    33   ar
    33    33    34   ar
    34    34    25   ar
    35    34    29   ar
    36     6     1   ar
    37    11     7   ar
    38    19    14    1
    39    36    39    1
    40    23    24    1
    41    12    13    1
    42    20    21    1
    43    20    22    1
@<TRIPOS>MOLECULE
*****
 39 43 0 0 0
SMALL
GASTEIGER

@<TRIPOS>ATOM
      1 C         140.9564  145.0559  161.5334 C.ar    1  UNL1        0.2221
      2 N         139.6479  145.5851  162.0410 N.ar    1  UNL1       -0.2119
      3 C         139.1220  145.1344  163.3716 C.ar    1  UNL1        0.1050
      4 C         139.9046  144.1546  164.1946 C.ar    1  UNL1        0.0596
      5 C         141.2132  143.6254  163.6870 C.ar    1  UNL1        0.1683
      6 N         141.7391  144.0760  162.3565 N.ar    1  UNL1       -0.1944
      7 N         141.9959  142.6456  164.5100 N.ar    1  UNL1       -0.2092
      8 C         141.6149  142.1308  165.8664 C.ar    1  UNL1        0.1179
      9 C         142.6805  141.1756  166.3159 C.ar    1  UNL1        0.0853
     10 C         143.7202  141.1001  165.2372 C.ar    1  UNL1        0.1364
     11 N         143.2970  142.0086  164.1212 N.ar    1  UNL1       -0.1608
     12 N         142.7026  140.4273  167.6157 N.pl3   1  UNL1       -0.3303
     13 H         143.3138  139.6646  167.7343 H       1  UNL1        0.1469
     14 C         141.7935  140.8409  168.7348 C.3     1  UNL1        0.0884
     15 C         140.4356  140.2173  168.8675 C.3     1  UNL1        0.0530
     16 C         139.5265  140.6310  169.9866 C.3     1  UNL1        0.1440
     17 O         139.9752  141.6681  170.9730 O.3     1  UNL1       -0.3522
     18 C         141.3331  142.2916  170.8403 C.3     1  UNL1        0.1592
     19 C         142.2422  141.8780  169.7212 C.3     1  UNL1        0.0990
     20 N         143.5999  142.5015  169.5885 N.3     1  UNL1       -0.3189
     21 H         143.7372  143.1798  170.3378 H       1  UNL1        0.1189
     22 H         143.6712  142.9723  168.6865 H       1  UNL1        0.1189
     23 N         141.4823  145.5064  160.2029 N.pl3   1  UNL1       -0.2825
     24 H         142.2889  146.0691  160.1573 H       1  UNL1        0.1551
     25 C         139.0241  146.5391  155.5861 C.ar    1  UNL1        0.1554
     26 N         138.4400  145.5809  154.5908 N.ar    1  UNL1       -0.1646
     27 N         138.6558  144.1887  155.1059 N.ar    1  UNL1       -0.2487
     28 C         138.2290  142.9212  154.4267 C.3     1  UNL1        0.1537
     29 C         139.3732  144.2865  156.4196 C.ar    1  UNL1        0.0796
     30 C         139.8486  143.2406  157.3839 C.ar    1  UNL1        0.0201
     31 C         140.5516  143.6472  158.6450 C.ar    1  UNL1        0.0162
     32 C         140.7793  145.0998  158.9418 C.ar    1  UNL1        0.0506
     33 C         140.3039  146.1458  157.9775 C.ar    1  UNL1        0.0179
     34 C         139.6009  145.7391  156.7164 C.ar    1  UNL1        0.0423
     35 C         138.4752  150.3700  156.4655 C.3     1  UNL1        0.1110
     36 N         138.4689  148.8744  156.5803 N.am    1  UNL1       -0.2979
     37 C         139.0304  148.0347  155.4713 C.2     1  UNL1        0.2654
     38 O         139.5982  148.6906  154.2477 O.2     1  UNL1       -0.2684
     39 H         138.0963  148.4439  157.3834 H       1  UNL1        0.1498
@<TRIPOS>BOND
     1    35    36    1
     2    36    37   am
     3    37    38    2
     4    37    25    1
     5    25    26   ar
     6    26    27   ar
     7    27    28    1
     8    27    29   ar
     9    29    30   ar
    10    30    31   ar
    11    31    32   ar
    12    32    23    1
    13    23     1    1
    14     1     2   ar
    15     2     3   ar
    16     3     4   ar
    17     4     5   ar
    18     5     7    1
    19     7     8   ar
    20     8     9   ar
    21     9    12    1
    22    14    12    1
    23    14    15    1
    24    15    16    1
    25    16    17    1
    26    17    18    1
    27    18    19    1
    28    19    20    1
    29     9    10   ar
    30    10    11   ar
    31     5     6   ar
    32    32    33   ar
    33    33    34   ar
    34    34    25   ar
    35    34    29   ar
    36     6     1   ar
    37    11     7   ar
    38    19    14    1
    39    36    39    1
    40    23    24    1
    41    12    13    1
    42    20    21    1
    43    20    22    1
@<TRIPOS>MOLECULE
*****
 39 43 0 0 0
SMALL
GASTEIGER

@<TRIPOS>ATOM
      1 C         138.5921  140.2405  159.0337 C.ar    1  UNL1        0.2221
      2 N         138.1972  139.9702  157.6121 N.ar    1  UNL1       -0.2119
      3 C         139.1713  140.2286  156.5010 C.ar    1  UNL1        0.1050
      4 C         140.5403  140.7572  156.8116 C.ar    1  UNL1        0.0596
      5 C         140.9352  141.0276  158.2332 C.ar    1  UNL1        0.1683
      6 N         139.9611  140.7692  159.3443 N.ar    1  UNL1       -0.1944
      7 N         142.3041  141.5562  158.5438 N.ar    1  UNL1       -0.2092
      8 C         142.8343  141.8834  159.9083 C.ar    1  UNL1        0.1179
      9 C         144.2411  142.3799  159.7522 C.ar    1  UNL1        0.0853
     10 C         144.5803  142.3597  158.2911 C.ar    1  UNL1        0.1364
     11 N         143.3832  141.8506  157.5443 N.ar    1  UNL1       -0.1608
     12 N         145.1492  142.8195  160.8622 N.pl3   1  UNL1       -0.3303
     13 H         145.9992  143.2703  160.6534 H       1  UNL1        0.1469
     14 C         144.7623  142.5723  162.2902 C.3     1  UNL1        0.0884
     15 C         145.1861  141.3059  162.9736 C.3     1  UNL1        0.0530
     16 C         144.7991  141.0587  164.4016 C.3     1  UNL1        0.1440
     17 O         143.9885  142.0777  165.1462 O.3     1  UNL1       -0.3522
     18 C         143.5648  143.3440  164.4628 C.3     1  UNL1        0.1592
     19 C         143.9517  143.5913  163.0348 C.3     1  UNL1        0.0990
     20 N         143.5280  144.8575  162.3515 N.3     1  UNL1       -0.3189
     21 H         142.9887  145.4302  163.0008 H       1  UNL1        0.1189
     22 H         142.9529  144.6301  161.5404 H       1  UNL1        0.1189
     23 N         137.6181  139.9822  160.1448 N.pl3   1  UNL1       -0.2825
     24 H         136.6816  139.7609  159.9369 H       1  UNL1        0.1551
     25 C         139.3314  142.6197  164.4497 C.ar    1  UNL1        0.1554
     26 N         139.6747  142.0883  165.8098 N.ar    1  UNL1       -0.1646
     27 N         139.4553  140.6045  165.7965 N.ar    1  UNL1       -0.2487
     28 C         139.6761  139.6702  166.9492 C.3     1  UNL1        0.1537
     29 C         138.9765  140.2188  164.4283 C.ar    1  UNL1        0.0796
     30 C         138.6003  138.8945  163.8329 C.ar    1  UNL1        0.0201
     31 C         138.1475  138.8156  162.4051 C.ar    1  UNL1        0.0162
     32 C         138.0709  140.0611  161.5727 C.ar    1  UNL1        0.0506
     33 C         138.4471  141.3855  162.1681 C.ar    1  UNL1        0.0179
     34 C         138.8999  141.4643  163.5959 C.ar    1  UNL1        0.0423
     35 C         140.2060  145.8571  162.3273 C.3     1  UNL1        0.1110
     36 N         140.1310  144.4222  162.7580 N.am    1  UNL1       -0.2979
     37 C         139.4064  144.0545  164.0190 C.2     1  UNL1        0.2654
     38 O         138.7570  145.1218  164.8491 O.2     1  UNL1       -0.2684
     39 H         140.5572  143.7218  162.2131 H       1  UNL1        0.1498
@<TRIPOS>BOND
     1    35    36    1
     2    36    37   am
     3    37    38    2
     4    37    25    1
     5    25    26   ar
     6    26    27   ar
     7    27    28    1
     8    27    29   ar
     9    29    30   ar
    10    30    31   ar
    11    31    32   ar
    12    32    23    1
    13    23     1    1
    14     1     2   ar
    15     2     3   ar
    16     3     4   ar
    17     4     5   ar
    18     5     7    1
    19     7     8   ar
    20     8     9   ar
    21     9    12    1
    22    14    12    1
    23    14    15    1
    24    15    16    1
    25    16    17    1
    26    17    18    1
    27    18    19    1
    28    19    20    1
    29     9    10   ar
    30    10    11   ar
    31     5     6   ar
    32    32    33   ar
    33    33    34   ar
    34    34    25   ar
    35    34    29   ar
    36     6     1   ar
    37    11     7   ar
    38    19    14    1
    39    36    39    1
    40    23    24    1
    41    12    13    1
    42    20    21    1
    43    20    22    1
@<TRIPOS>MOLECULE
*****
 39 43 0 0 0
SMALL
GASTEIGER

@<TRIPOS>ATOM
      1 C         139.6415  139.3085  161.3378 C.ar    1  UNL1        0.2221
      2 N         140.9101  138.5564  161.0639 N.ar    1  UNL1       -0.2119
      3 C         141.7049  137.9870  162.2015 C.ar    1  UNL1        0.1050
      4 C         141.2312  138.1697  163.6129 C.ar    1  UNL1        0.0596
      5 C         139.9626  138.9219  163.8868 C.ar    1  UNL1        0.1683
      6 N         139.1678  139.4913  162.7493 N.ar    1  UNL1       -0.1944
      7 N         139.4889  139.1046  165.2982 N.ar    1  UNL1       -0.2092
      8 C         140.3522  139.4164  166.4847 C.ar    1  UNL1        0.1179
      9 C         139.4655  139.5122  167.6907 C.ar    1  UNL1        0.0853
     10 C         138.0542  139.2596  167.2497 C.ar    1  UNL1        0.1364
     11 N         138.0687  139.0077  165.7711 N.ar    1  UNL1       -0.1608
     12 N         139.9117  139.8085  169.0918 N.pl3   1  UNL1       -0.3303
     13 H         139.5802  139.2613  169.8401 H       1  UNL1        0.1469
     14 C         140.8631  140.9385  169.3528 C.3     1  UNL1        0.0884
     15 C         140.3392  142.3311  169.5435 C.3     1  UNL1        0.0530
     16 C         141.2906  143.4611  169.8045 C.3     1  UNL1        0.1440
     17 O         142.7657  143.1985  169.8748 O.3     1  UNL1       -0.3522
     18 C         143.2896  141.8059  169.6840 C.3     1  UNL1        0.1592
     19 C         142.3382  140.6759  169.4231 C.3     1  UNL1        0.0990
     20 N         142.8621  139.2834  169.2324 N.3     1  UNL1       -0.3189
     21 H         143.8790  139.2889  169.3118 H       1  UNL1        0.1189
     22 H         142.5950  138.9432  168.3086 H       1  UNL1        0.1189
     23 N         138.8467  139.8779  160.2003 N.pl3   1  UNL1       -0.2825
     24 H         138.0892  139.3718  159.8272 H       1  UNL1        0.1551
     25 C         141.5608  144.4668  160.1937 C.ar    1  UNL1        0.1554
     26 N         141.4909  145.6054  159.2197 N.ar    1  UNL1       -0.1646
     27 N         140.4797  145.2548  158.1687 N.ar    1  UNL1       -0.2487
     28 C         140.0916  146.1094  156.9986 C.3     1  UNL1        0.1537
     29 C         139.9247  143.8996  158.4931 C.ar    1  UNL1        0.0796
     30 C         138.8972  143.0461  157.8106 C.ar    1  UNL1        0.0201
     31 C         138.5379  141.7056  158.3797 C.ar    1  UNL1        0.0162
     32 C         139.2061  141.2185  159.6312 C.ar    1  UNL1        0.0506
     33 C         140.2336  142.0720  160.3137 C.ar    1  UNL1        0.0179
     34 C         140.5929  143.4125  159.7447 C.ar    1  UNL1        0.0423
     35 C         142.9205  145.0167  163.8814 C.3     1  UNL1        0.1110
     36 N         142.0376  145.0885  162.6708 N.am    1  UNL1       -0.2979
     37 C         142.4437  144.3950  161.4042 C.2     1  UNL1        0.2654
     38 O         143.7326  143.6298  161.3482 O.2     1  UNL1       -0.2684
     39 H         141.1917  145.5907  162.7077 H       1  UNL1        0.1498
@<TRIPOS>BOND
     1    35    36    1
     2    36    37   am
     3    37    38    2
     4    37    25    1
     5    25    26   ar
     6    26    27   ar
     7    27    28    1
     8    27    29   ar
     9    29    30   ar
    10    30    31   ar
    11    31    32   ar
    12    32    23    1
    13    23     1    1
    14     1     2   ar
    15     2     3   ar
    16     3     4   ar
    17     4     5   ar
    18     5     7    1
    19     7     8   ar
    20     8     9   ar
    21     9    12    1
    22    14    12    1
    23    14    15    1
    24    15    16    1
    25    16    17    1
    26    17    18    1
    27    18    19    1
    28    19    20    1
    29     9    10   ar
    30    10    11   ar
    31     5     6   ar
    32    32    33   ar
    33    33    34   ar
    34    34    25   ar
    35    34    29   ar
    36     6     1   ar
    37    11     7   ar
    38    19    14    1
    39    36    39    1
    40    23    24    1
    41    12    13    1
    42    20    21    1
    43    20    22    1
