@<TRIPOS>MOLECULE
*****
 33 35 0 0 0
SMALL
GASTEIGER

@<TRIPOS>ATOM
      1 C         140.5276  142.1327  166.1586 C.2     1  UNL1       -0.0040
      2 C         139.8974  140.7951  165.9067 C.2     1  UNL1       -0.0221
      3 C         141.1449  142.4316  167.4926 C.ar    1  UNL1       -0.0001
      4 C         140.3347  143.1059  168.5597 C.ar    1  UNL1        0.0031
      5 C         140.9521  143.4048  169.8938 C.ar    1  UNL1        0.0366
      6 C         142.3796  143.0293  170.1606 C.ar    1  UNL1        0.1337
      7 O         142.9969  143.3282  171.4947 O.3     1  UNL1       -0.5055
      8 C         143.1898  142.3550  169.0935 C.ar    1  UNL1        0.0366
      9 C         142.5725  142.0561  167.7595 C.ar    1  UNL1        0.0031
     10 H         142.4908  143.7495  172.1613 H       1  UNL1        0.2922
     11 C         140.5666  145.2488  162.9124 C.ar    1  UNL1        0.1386
     12 C         139.4169  145.1812  163.8733 C.ar    1  UNL1        0.0369
     13 C         139.4039  144.1425  164.9554 C.ar    1  UNL1        0.0031
     14 C         140.5406  143.1714  165.0765 C.ar    1  UNL1       -0.0001
     15 C         141.6904  143.2390  164.1156 C.ar    1  UNL1        0.0031
     16 C         141.7034  144.2777  163.0335 C.ar    1  UNL1        0.0369
     17 O         140.5796  146.2875  161.8303 O.3     1  UNL1       -0.4740
     18 C         139.8111  146.0595  160.5625 C.3     1  UNL1        0.2226
     19 C         140.3313  145.1016  159.5320 C.3     1  UNL1        0.1201
     20 C         139.3205  143.4288  157.8203 C.3     1  UNL1        0.0898
     21 N         139.5830  143.8347  159.2403 N.3     1  UNL1       -0.2672
     22 C         139.0973  142.9738  160.3684 C.3     1  UNL1        0.0898
     23 C         139.2800  140.4961  164.5727 C.ar    1  UNL1       -0.0040
     24 C         140.0206  139.6557  163.5750 C.ar    1  UNL1       -0.0003
     25 C         139.4033  139.3568  162.2410 C.ar    1  UNL1       -0.0000
     26 C         138.0454  139.8982  161.9046 C.ar    1  UNL1       -0.0000
     27 C         137.3049  140.7386  162.9023 C.ar    1  UNL1       -0.0000
     28 C         137.9222  141.0375  164.2363 C.ar    1  UNL1       -0.0003
     29 C         139.8844  139.7564  166.9888 C.3     1  UNL1        0.0289
     30 C         138.5831  139.3210  167.5949 C.3     1  UNL1        0.0364
     31 C         137.7181  138.3261  166.8794 C.3     1  UNL1        0.1375
     32 O         136.7024  137.5293  167.6430 O.3     1  UNL1       -0.3820
     33 H         137.1558  136.9351  168.2613 H       1  UNL1        0.2104
@<TRIPOS>BOND
     1    20    21    1
     2    21    22    1
     3    21    19    1
     4    19    18    1
     5    18    17    1
     6    17    11    1
     7    11    12   ar
     8    12    13   ar
     9    13    14   ar
    10    14     1    1
    11     1     2    2
    12     2    29    1
    13    29    30    1
    14    30    31    1
    15    31    32    1
    16     2    23    1
    17    23    24   ar
    18    24    25   ar
    19    25    26   ar
    20    26    27   ar
    21    27    28   ar
    22     1     3    1
    23     3     4   ar
    24     4     5   ar
    25     5     6   ar
    26     6     7    1
    27     6     8   ar
    28     8     9   ar
    29    14    15   ar
    30    15    16   ar
    31    16    11   ar
    32    28    23   ar
    33     9     3   ar
    34    32    33    1
    35     7    10    1
@<TRIPOS>MOLECULE
*****
 33 35 0 0 0
SMALL
GASTEIGER

@<TRIPOS>ATOM
      1 C         140.5336  142.0968  166.0958 C.2     1  UNL1       -0.0040
      2 C         139.8755  140.7678  165.8715 C.2     1  UNL1       -0.0221
      3 C         141.1490  142.4139  167.4264 C.ar    1  UNL1       -0.0001
      4 C         142.5815  142.0582  167.6941 C.ar    1  UNL1        0.0031
      5 C         143.1969  142.3753  169.0249 C.ar    1  UNL1        0.0366
      6 C         142.3799  143.0480  170.0878 C.ar    1  UNL1        0.1337
      7 O         142.9954  143.3650  171.4186 O.3     1  UNL1       -0.5055
      8 C         140.9475  143.4036  169.8202 C.ar    1  UNL1        0.0366
      9 C         140.3320  143.0866  168.4895 C.ar    1  UNL1        0.0031
     10 H         143.8901  143.1429  171.5858 H       1  UNL1        0.2922
     11 C         140.6616  145.1330  162.7768 C.ar    1  UNL1        0.1386
     12 C         139.5087  145.1188  163.7363 C.ar    1  UNL1        0.0369
     13 C         139.4660  144.1067  164.8426 C.ar    1  UNL1        0.0031
     14 C         140.5763  143.1089  164.9895 C.ar    1  UNL1       -0.0001
     15 C         141.7292  143.1231  164.0301 C.ar    1  UNL1        0.0031
     16 C         141.7719  144.1351  162.9238 C.ar    1  UNL1        0.0369
     17 O         140.7043  146.1450  161.6705 O.3     1  UNL1       -0.4740
     18 C         140.0531  145.8441  160.3533 C.3     1  UNL1        0.2226
     19 C         140.4710  144.6360  159.5686 C.3     1  UNL1        0.1201
     20 C         142.7525  143.5946  158.8900 C.3     1  UNL1        0.0898
     21 N         141.7221  144.6745  158.7419 N.3     1  UNL1       -0.2672
     22 C         141.9427  145.7930  157.7671 C.3     1  UNL1        0.0898
     23 C         139.2600  140.4507  164.5408 C.ar    1  UNL1       -0.0040
     24 C         137.9380  141.0509  164.1638 C.ar    1  UNL1       -0.0003
     25 C         137.3225  140.7339  162.8331 C.ar    1  UNL1       -0.0000
     26 C         138.0290  139.8165  161.8794 C.ar    1  UNL1       -0.0000
     27 C         139.3510  139.2163  162.2564 C.ar    1  UNL1       -0.0000
     28 C         139.9664  139.5334  163.5871 C.ar    1  UNL1       -0.0003
     29 C         139.8328  139.7557  166.9778 C.3     1  UNL1        0.0289
     30 C         138.5153  139.3336  167.5577 C.3     1  UNL1        0.0364
     31 C         137.7003  138.2750  166.8755 C.3     1  UNL1        0.1375
     32 O         136.6541  137.5230  167.6434 O.3     1  UNL1       -0.3820
     33 H         137.0804  136.9837  168.3278 H       1  UNL1        0.2104
@<TRIPOS>BOND
     1    20    21    1
     2    21    22    1
     3    21    19    1
     4    19    18    1
     5    18    17    1
     6    17    11    1
     7    11    12   ar
     8    12    13   ar
     9    13    14   ar
    10    14     1    1
    11     1     2    2
    12     2    29    1
    13    29    30    1
    14    30    31    1
    15    31    32    1
    16     2    23    1
    17    23    24   ar
    18    24    25   ar
    19    25    26   ar
    20    26    27   ar
    21    27    28   ar
    22     1     3    1
    23     3     4   ar
    24     4     5   ar
    25     5     6   ar
    26     6     7    1
    27     6     8   ar
    28     8     9   ar
    29    14    15   ar
    30    15    16   ar
    31    16    11   ar
    32    28    23   ar
    33     9     3   ar
    34    32    33    1
    35     7    10    1
@<TRIPOS>MOLECULE
*****
 33 35 0 0 0
SMALL
GASTEIGER

@<TRIPOS>ATOM
      1 C         140.5180  140.8138  166.6565 C.2     1  UNL1       -0.0040
      2 C         141.5611  139.7384  166.5823 C.2     1  UNL1       -0.0221
      3 C         140.1862  141.4471  167.9751 C.ar    1  UNL1       -0.0001
      4 C         139.4099  140.6777  169.0025 C.ar    1  UNL1        0.0031
      5 C         139.0781  141.3110  170.3211 C.ar    1  UNL1        0.0366
      6 C         139.5226  142.7137  170.6125 C.ar    1  UNL1        0.1337
      7 O         139.1908  143.3470  171.9311 O.3     1  UNL1       -0.5055
      8 C         140.2989  143.4831  169.5851 C.ar    1  UNL1        0.0366
      9 C         140.6307  142.8498  168.2665 C.ar    1  UNL1        0.0031
     10 H         138.7058  142.8664  172.5729 H       1  UNL1        0.2922
     11 C         138.3842  142.1400  162.9232 C.ar    1  UNL1        0.1386
     12 C         137.7979  141.0550  163.7769 C.ar    1  UNL1        0.0369
     13 C         138.5091  140.6129  165.0213 C.ar    1  UNL1        0.0031
     14 C         139.8068  141.2559  165.4121 C.ar    1  UNL1       -0.0001
     15 C         140.3931  142.3409  164.5584 C.ar    1  UNL1        0.0031
     16 C         139.6819  142.7830  163.3139 C.ar    1  UNL1        0.0369
     17 O         137.6730  142.5821  161.6787 O.3     1  UNL1       -0.4740
     18 C         138.3201  142.3955  160.3385 C.3     1  UNL1        0.2226
     19 C         138.4772  141.0176  159.7668 C.3     1  UNL1        0.1201
     20 C         138.9818  138.7412  160.9130 C.3     1  UNL1        0.0898
     21 N         139.4567  140.0594  160.3774 N.3     1  UNL1       -0.2672
     22 C         140.9108  140.4196  160.4525 C.3     1  UNL1        0.0898
     23 C         141.8930  139.1051  165.2637 C.ar    1  UNL1       -0.0040
     24 C         143.0412  139.6244  164.4501 C.ar    1  UNL1       -0.0003
     25 C         143.3731  138.9912  163.1315 C.ar    1  UNL1       -0.0000
     26 C         142.5567  137.8385  162.6264 C.ar    1  UNL1       -0.0000
     27 C         141.4085  137.3192  163.4400 C.ar    1  UNL1       -0.0000
     28 C         141.0767  137.9525  164.7587 C.ar    1  UNL1       -0.0003
     29 C         142.2724  139.2964  167.8268 C.3     1  UNL1        0.0289
     30 C         143.0404  140.2915  168.6453 C.3     1  UNL1        0.0364
     31 C         142.8581  140.3386  170.1335 C.3     1  UNL1        0.1375
     32 O         144.0151  140.0413  171.0406 O.3     1  UNL1       -0.3820
     33 H         144.2759  139.1126  170.9383 H       1  UNL1        0.2104
@<TRIPOS>BOND
     1    20    21    1
     2    21    22    1
     3    21    19    1
     4    19    18    1
     5    18    17    1
     6    17    11    1
     7    11    12   ar
     8    12    13   ar
     9    13    14   ar
    10    14     1    1
    11     1     2    2
    12     2    29    1
    13    29    30    1
    14    30    31    1
    15    31    32    1
    16     2    23    1
    17    23    24   ar
    18    24    25   ar
    19    25    26   ar
    20    26    27   ar
    21    27    28   ar
    22     1     3    1
    23     3     4   ar
    24     4     5   ar
    25     5     6   ar
    26     6     7    1
    27     6     8   ar
    28     8     9   ar
    29    14    15   ar
    30    15    16   ar
    31    16    11   ar
    32    28    23   ar
    33     9     3   ar
    34    32    33    1
    35     7    10    1
@<TRIPOS>MOLECULE
*****
 33 35 0 0 0
SMALL
GASTEIGER

@<TRIPOS>ATOM
      1 C         140.8058  140.2406  164.8366 C.2     1  UNL1       -0.0040
      2 C         142.2329  139.7826  164.8978 C.2     1  UNL1       -0.0221
      3 C         139.7402  139.4732  165.5614 C.ar    1  UNL1       -0.0001
      4 C         139.2343  138.1781  164.9985 C.ar    1  UNL1        0.0031
      5 C         138.1686  137.4106  165.7234 C.ar    1  UNL1        0.0366
      6 C         137.6088  137.9383  167.0111 C.ar    1  UNL1        0.1337
      7 O         136.5431  137.1708  167.7359 O.3     1  UNL1       -0.5055
      8 C         138.1147  139.2333  167.5740 C.ar    1  UNL1        0.0366
      9 C         139.1803  140.0008  166.8492 C.ar    1  UNL1        0.0031
     10 H         136.2271  136.3618  167.3843 H       1  UNL1        0.2922
     11 C         139.7217  143.9169  162.4788 C.ar    1  UNL1        0.1386
     12 C         139.7185  142.5720  161.8147 C.ar    1  UNL1        0.0369
     13 C         140.0798  141.3465  162.6006 C.ar    1  UNL1        0.0031
     14 C         140.4445  141.4661  164.0507 C.ar    1  UNL1       -0.0001
     15 C         140.4477  142.8110  164.7148 C.ar    1  UNL1        0.0031
     16 C         140.0863  144.0364  163.9288 C.ar    1  UNL1        0.0369
     17 O         139.3603  145.1423  161.6928 O.3     1  UNL1       -0.4740
     18 C         140.3628  145.7601  160.7637 C.3     1  UNL1        0.2226
     19 C         140.3951  145.3564  159.3194 C.3     1  UNL1        0.1201
     20 C         142.4791  143.8094  159.2011 C.3     1  UNL1        0.0898
     21 N         141.6956  144.9757  158.6759 N.3     1  UNL1       -0.2672
     22 C         142.2125  145.7613  157.5074 C.3     1  UNL1        0.0898
     23 C         143.2986  140.5501  164.1730 C.ar    1  UNL1       -0.0040
     24 C         144.0464  141.6430  164.8776 C.ar    1  UNL1       -0.0003
     25 C         145.1121  142.4104  164.1529 C.ar    1  UNL1       -0.0000
     26 C         145.4301  142.0850  162.7235 C.ar    1  UNL1       -0.0000
     27 C         144.6823  140.9921  162.0189 C.ar    1  UNL1       -0.0000
     28 C         143.6165  140.2247  162.7437 C.ar    1  UNL1       -0.0003
     29 C         142.5942  138.5572  165.6838 C.3     1  UNL1        0.0289
     30 C         143.2174  138.6937  167.0414 C.3     1  UNL1        0.0364
     31 C         142.5761  139.5699  168.0763 C.3     1  UNL1        0.1375
     32 O         143.1055  139.5839  169.4797 O.3     1  UNL1       -0.3820
     33 H         142.9602  138.7165  169.8887 H       1  UNL1        0.2104
@<TRIPOS>BOND
     1    20    21    1
     2    21    22    1
     3    21    19    1
     4    19    18    1
     5    18    17    1
     6    17    11    1
     7    11    12   ar
     8    12    13   ar
     9    13    14   ar
    10    14     1    1
    11     1     2    2
    12     2    29    1
    13    29    30    1
    14    30    31    1
    15    31    32    1
    16     2    23    1
    17    23    24   ar
    18    24    25   ar
    19    25    26   ar
    20    26    27   ar
    21    27    28   ar
    22     1     3    1
    23     3     4   ar
    24     4     5   ar
    25     5     6   ar
    26     6     7    1
    27     6     8   ar
    28     8     9   ar
    29    14    15   ar
    30    15    16   ar
    31    16    11   ar
    32    28    23   ar
    33     9     3   ar
    34    32    33    1
    35     7    10    1
@<TRIPOS>MOLECULE
*****
 33 35 0 0 0
SMALL
GASTEIGER

@<TRIPOS>ATOM
      1 C         140.6233  141.3949  166.2137 C.2     1  UNL1       -0.0040
      2 C         141.1783  140.1061  165.6839 C.2     1  UNL1       -0.0221
      3 C         140.5375  141.6224  167.6938 C.ar    1  UNL1       -0.0001
      4 C         141.3691  142.6920  168.3377 C.ar    1  UNL1        0.0031
      5 C         141.2833  142.9194  169.8179 C.ar    1  UNL1        0.0366
      6 C         140.3659  142.0774  170.6542 C.ar    1  UNL1        0.1337
      7 O         140.2801  142.3048  172.1344 O.3     1  UNL1       -0.5055
      8 C         139.5344  141.0078  170.0103 C.ar    1  UNL1        0.0366
      9 C         139.6202  140.7803  168.5302 C.ar    1  UNL1        0.0031
     10 H         140.7996  142.9729  172.5366 H       1  UNL1        0.2922
     11 C         139.2154  144.5790  163.3625 C.ar    1  UNL1        0.1386
     12 C         138.2813  143.4839  163.7844 C.ar    1  UNL1        0.0369
     13 C         138.7506  142.4225  164.7348 C.ar    1  UNL1        0.0031
     14 C         140.1540  142.4563  165.2633 C.ar    1  UNL1       -0.0001
     15 C         141.0880  143.5515  164.8414 C.ar    1  UNL1        0.0031
     16 C         140.6187  144.6128  163.8910 C.ar    1  UNL1        0.0369
     17 O         138.7460  145.6404  162.4122 O.3     1  UNL1       -0.4740
     18 C         139.7241  146.3092  161.4923 C.3     1  UNL1        0.2226
     19 C         140.0594  145.6834  160.1709 C.3     1  UNL1        0.1201
     20 C         141.9766  143.9763  160.5715 C.3     1  UNL1        0.0898
     21 N         140.5791  144.2773  160.1173 N.3     1  UNL1       -0.2672
     22 C         139.7012  143.1722  159.6095 C.3     1  UNL1        0.0898
     23 C         141.2641  139.8785  164.2037 C.ar    1  UNL1       -0.0040
     24 C         142.4541  140.3739  163.4365 C.ar    1  UNL1       -0.0003
     25 C         142.5399  140.1464  161.9564 C.ar    1  UNL1       -0.0000
     26 C         141.4357  139.4235  161.2434 C.ar    1  UNL1       -0.0000
     27 C         140.2458  138.9281  162.0106 C.ar    1  UNL1       -0.0000
     28 C         140.1600  139.1556  163.4908 C.ar    1  UNL1       -0.0003
     29 C         141.6477  139.0447  166.6343 C.3     1  UNL1        0.0289
     30 C         143.0846  139.0040  167.0630 C.3     1  UNL1        0.0364
     31 C         144.0351  138.0446  166.4102 C.3     1  UNL1        0.1375
     32 O         144.6937  136.9706  167.2242 O.3     1  UNL1       -0.3820
     33 H         145.2915  137.3762  167.8715 H       1  UNL1        0.2104
@<TRIPOS>BOND
     1    20    21    1
     2    21    22    1
     3    21    19    1
     4    19    18    1
     5    18    17    1
     6    17    11    1
     7    11    12   ar
     8    12    13   ar
     9    13    14   ar
    10    14     1    1
    11     1     2    2
    12     2    29    1
    13    29    30    1
    14    30    31    1
    15    31    32    1
    16     2    23    1
    17    23    24   ar
    18    24    25   ar
    19    25    26   ar
    20    26    27   ar
    21    27    28   ar
    22     1     3    1
    23     3     4   ar
    24     4     5   ar
    25     5     6   ar
    26     6     7    1
    27     6     8   ar
    28     8     9   ar
    29    14    15   ar
    30    15    16   ar
    31    16    11   ar
    32    28    23   ar
    33     9     3   ar
    34    32    33    1
    35     7    10    1
@<TRIPOS>MOLECULE
*****
 33 35 0 0 0
SMALL
GASTEIGER

@<TRIPOS>ATOM
      1 C         140.4975  140.9632  166.5496 C.2     1  UNL1       -0.0040
      2 C         141.9514  140.6011  166.6200 C.2     1  UNL1       -0.0221
      3 C         139.5153  140.3056  167.4730 C.ar    1  UNL1       -0.0001
      4 C         138.5901  139.2458  166.9525 C.ar    1  UNL1        0.0031
      5 C         137.6079  138.5881  167.8759 C.ar    1  UNL1        0.0366
      6 C         137.5508  138.9902  169.3199 C.ar    1  UNL1        0.1337
      7 O         136.5685  138.3326  170.2433 O.3     1  UNL1       -0.5055
      8 C         138.4759  140.0500  169.8404 C.ar    1  UNL1        0.0366
      9 C         139.4582  140.7077  168.9170 C.ar    1  UNL1        0.0031
     10 H         135.9906  137.6706  169.9182 H       1  UNL1        0.2922
     11 C         139.0825  144.0227  163.5684 C.ar    1  UNL1        0.1386
     12 C         139.1656  142.5769  163.1774 C.ar    1  UNL1        0.0369
     13 C         139.6373  141.5571  164.1712 C.ar    1  UNL1        0.0031
     14 C         140.0259  141.9830  165.5559 C.ar    1  UNL1       -0.0001
     15 C         139.9427  143.4287  165.9469 C.ar    1  UNL1        0.0031
     16 C         139.4711  144.4486  164.9532 C.ar    1  UNL1        0.0369
     17 O         138.6109  145.0425  162.5747 O.3     1  UNL1       -0.4740
     18 C         139.5925  145.9851  161.9440 C.3     1  UNL1        0.2226
     19 C         140.3466  145.5710  160.7152 C.3     1  UNL1        0.1201
     20 C         141.4336  143.4371  159.7079 C.3     1  UNL1        0.0898
     21 N         141.3616  144.4694  160.7938 N.3     1  UNL1       -0.2672
     22 C         142.3046  144.4000  161.9582 C.3     1  UNL1        0.0898
     23 C         142.9337  141.2587  165.6966 C.ar    1  UNL1       -0.0040
     24 C         143.5415  142.5795  166.0655 C.ar    1  UNL1       -0.0003
     25 C         144.5237  143.2372  165.1422 C.ar    1  UNL1       -0.0000
     26 C         144.8983  142.5741  163.8499 C.ar    1  UNL1       -0.0000
     27 C         144.2906  141.2532  163.4810 C.ar    1  UNL1       -0.0000
     28 C         143.3083  140.5956  164.4044 C.ar    1  UNL1       -0.0003
     29 C         142.4231  139.5812  167.6138 C.3     1  UNL1        0.0289
     30 C         142.8047  140.0062  169.0008 C.3     1  UNL1        0.0364
     31 C         142.4384  139.1483  170.1755 C.3     1  UNL1        0.1375
     32 O         143.1955  137.8816  170.4442 O.3     1  UNL1       -0.3820
     33 H         143.0347  137.2502  169.7257 H       1  UNL1        0.2104
@<TRIPOS>BOND
     1    20    21    1
     2    21    22    1
     3    21    19    1
     4    19    18    1
     5    18    17    1
     6    17    11    1
     7    11    12   ar
     8    12    13   ar
     9    13    14   ar
    10    14     1    1
    11     1     2    2
    12     2    29    1
    13    29    30    1
    14    30    31    1
    15    31    32    1
    16     2    23    1
    17    23    24   ar
    18    24    25   ar
    19    25    26   ar
    20    26    27   ar
    21    27    28   ar
    22     1     3    1
    23     3     4   ar
    24     4     5   ar
    25     5     6   ar
    26     6     7    1
    27     6     8   ar
    28     8     9   ar
    29    14    15   ar
    30    15    16   ar
    31    16    11   ar
    32    28    23   ar
    33     9     3   ar
    34    32    33    1
    35     7    10    1
@<TRIPOS>MOLECULE
*****
 33 35 0 0 0
SMALL
GASTEIGER

@<TRIPOS>ATOM
      1 C         141.3347  140.6785  166.4748 C.2     1  UNL1       -0.0040
      2 C         140.1917  139.7748  166.1187 C.2     1  UNL1       -0.0221
      3 C         141.5349  141.1095  167.8974 C.ar    1  UNL1       -0.0001
      4 C         140.8851  142.3649  168.3993 C.ar    1  UNL1        0.0031
      5 C         141.0854  142.7959  169.8221 C.ar    1  UNL1        0.0366
      6 C         141.9354  141.9715  170.7429 C.ar    1  UNL1        0.1337
      7 O         142.1357  142.4025  172.1657 O.3     1  UNL1       -0.5055
      8 C         142.5852  140.7162  170.2410 C.ar    1  UNL1        0.0366
      9 C         142.3850  140.2852  168.8183 C.ar    1  UNL1        0.0031
     10 H         141.7298  143.1867  172.4792 H       1  UNL1        0.2922
     11 C         144.1630  142.0966  163.2748 C.ar    1  UNL1        0.1386
     12 C         144.3336  140.7330  163.8760 C.ar    1  UNL1        0.0369
     13 C         143.3908  140.2603  164.9426 C.ar    1  UNL1        0.0031
     14 C         142.2775  141.1512  165.4081 C.ar    1  UNL1       -0.0001
     15 C         142.1069  142.5148  164.8069 C.ar    1  UNL1        0.0031
     16 C         143.0497  142.9875  163.7403 C.ar    1  UNL1        0.0369
     17 O         145.1058  142.5693  162.2081 O.3     1  UNL1       -0.4740
     18 C         144.7470  142.4005  160.7615 C.3     1  UNL1        0.2226
     19 C         143.4840  143.0075  160.2263 C.3     1  UNL1        0.1201
     20 C         141.3693  142.6078  158.7708 C.3     1  UNL1        0.0898
     21 N         142.3505  142.1237  159.7969 N.3     1  UNL1       -0.2672
     22 C         142.1982  140.7560  160.3937 C.3     1  UNL1        0.0898
     23 C         139.9914  139.3437  164.6960 C.ar    1  UNL1       -0.0040
     24 C         139.3075  140.2591  163.7242 C.ar    1  UNL1       -0.0003
     25 C         139.1072  139.8281  162.3015 C.ar    1  UNL1       -0.0000
     26 C         139.5908  138.4816  161.8505 C.ar    1  UNL1       -0.0000
     27 C         140.2747  137.5663  162.8223 C.ar    1  UNL1       -0.0000
     28 C         140.4750  137.9973  164.2451 C.ar    1  UNL1       -0.0003
     29 C         139.2489  139.3021  167.1854 C.3     1  UNL1        0.0289
     30 C         137.8174  139.0100  166.8454 C.3     1  UNL1        0.0364
     31 C         137.0729  137.9413  167.5894 C.3     1  UNL1        0.1375
     32 O         137.2730  136.4989  167.2299 O.3     1  UNL1       -0.3820
     33 H         136.9352  136.3389  166.3348 H       1  UNL1        0.2104
@<TRIPOS>BOND
     1    20    21    1
     2    21    22    1
     3    21    19    1
     4    19    18    1
     5    18    17    1
     6    17    11    1
     7    11    12   ar
     8    12    13   ar
     9    13    14   ar
    10    14     1    1
    11     1     2    2
    12     2    29    1
    13    29    30    1
    14    30    31    1
    15    31    32    1
    16     2    23    1
    17    23    24   ar
    18    24    25   ar
    19    25    26   ar
    20    26    27   ar
    21    27    28   ar
    22     1     3    1
    23     3     4   ar
    24     4     5   ar
    25     5     6   ar
    26     6     7    1
    27     6     8   ar
    28     8     9   ar
    29    14    15   ar
    30    15    16   ar
    31    16    11   ar
    32    28    23   ar
    33     9     3   ar
    34    32    33    1
    35     7    10    1
@<TRIPOS>MOLECULE
*****
 33 35 0 0 0
SMALL
GASTEIGER

@<TRIPOS>ATOM
      1 C         140.9462  140.1423  165.1724 C.2     1  UNL1       -0.0040
      2 C         142.3163  140.0765  165.7792 C.2     1  UNL1       -0.0221
      3 C         139.8032  139.4194  165.8211 C.ar    1  UNL1       -0.0001
      4 C         139.1665  139.9800  167.0582 C.ar    1  UNL1        0.0031
      5 C         138.0234  139.2570  167.7069 C.ar    1  UNL1        0.0366
      6 C         137.5171  137.9735  167.1186 C.ar    1  UNL1        0.1337
      7 O         136.3740  137.2505  167.7673 O.3     1  UNL1       -0.5055
      8 C         138.1538  137.4129  165.8815 C.ar    1  UNL1        0.0366
      9 C         139.2968  138.1358  165.2328 C.ar    1  UNL1        0.0031
     10 H         135.9763  137.6007  168.5400 H       1  UNL1        0.2922
     11 C         140.2647  142.5087  161.4060 C.ar    1  UNL1        0.1386
     12 C         140.0961  143.1643  162.7445 C.ar    1  UNL1        0.0369
     13 C         140.3233  142.3756  164.0000 C.ar    1  UNL1        0.0031
     14 C         140.7190  140.9311  163.9170 C.ar    1  UNL1       -0.0001
     15 C         140.8876  140.2755  162.5785 C.ar    1  UNL1        0.0031
     16 C         140.6604  141.0643  161.3230 C.ar    1  UNL1        0.0369
     17 O         140.0375  143.2975  160.1505 O.3     1  UNL1       -0.4740
     18 C         141.2021  143.9009  159.4228 C.3     1  UNL1        0.2226
     19 C         142.1629  143.0183  158.6827 C.3     1  UNL1        0.1201
     20 C         143.8450  142.9152  160.6601 C.3     1  UNL1        0.0898
     21 N         143.5646  142.8457  159.1882 N.3     1  UNL1       -0.2672
     22 C         144.6859  142.6036  158.2217 C.3     1  UNL1        0.0898
     23 C         143.4595  140.7994  165.1305 C.ar    1  UNL1       -0.0040
     24 C         144.3446  140.0811  164.1556 C.ar    1  UNL1       -0.0003
     25 C         145.4877  140.8039  163.5069 C.ar    1  UNL1       -0.0000
     26 C         145.7456  142.2452  163.8331 C.ar    1  UNL1       -0.0000
     27 C         144.8604  142.9635  164.8080 C.ar    1  UNL1       -0.0000
     28 C         143.7173  142.2406  165.4567 C.ar    1  UNL1       -0.0003
     29 C         142.5435  139.2877  167.0347 C.3     1  UNL1        0.0289
     30 C         142.6619  139.9937  168.3529 C.3     1  UNL1        0.0364
     31 C         142.1252  139.3522  169.5981 C.3     1  UNL1        0.1375
     32 O         142.9741  138.3856  170.3695 O.3     1  UNL1       -0.3820
     33 H         143.1304  137.5928  169.8329 H       1  UNL1        0.2104
@<TRIPOS>BOND
     1    20    21    1
     2    21    22    1
     3    21    19    1
     4    19    18    1
     5    18    17    1
     6    17    11    1
     7    11    12   ar
     8    12    13   ar
     9    13    14   ar
    10    14     1    1
    11     1     2    2
    12     2    29    1
    13    29    30    1
    14    30    31    1
    15    31    32    1
    16     2    23    1
    17    23    24   ar
    18    24    25   ar
    19    25    26   ar
    20    26    27   ar
    21    27    28   ar
    22     1     3    1
    23     3     4   ar
    24     4     5   ar
    25     5     6   ar
    26     6     7    1
    27     6     8   ar
    28     8     9   ar
    29    14    15   ar
    30    15    16   ar
    31    16    11   ar
    32    28    23   ar
    33     9     3   ar
    34    32    33    1
    35     7    10    1
@<TRIPOS>MOLECULE
*****
 33 35 0 0 0
SMALL
GASTEIGER

@<TRIPOS>ATOM
      1 C         142.0021  141.0002  165.9600 C.2     1  UNL1       -0.0040
      2 C         142.3128  139.7600  165.1755 C.2     1  UNL1       -0.0221
      3 C         142.0285  140.9654  167.4593 C.ar    1  UNL1       -0.0001
      4 C         140.9817  140.1970  168.2103 C.ar    1  UNL1        0.0031
      5 C         141.0082  140.1623  169.7097 C.ar    1  UNL1        0.0366
      6 C         142.0813  140.8959  170.4581 C.ar    1  UNL1        0.1337
      7 O         142.1077  140.8612  171.9575 O.3     1  UNL1       -0.5055
      8 C         143.1280  141.6643  169.7071 C.ar    1  UNL1        0.0366
      9 C         143.1016  141.6990  168.2078 C.ar    1  UNL1        0.0031
     10 H         141.4539  140.3812  172.4266 H       1  UNL1        0.2922
     11 C         140.9906  144.8248  163.8155 C.ar    1  UNL1        0.1386
     12 C         139.8952  143.9668  164.3756 C.ar    1  UNL1        0.0369
     13 C         140.2324  142.6919  165.0905 C.ar    1  UNL1        0.0031
     14 C         141.6649  142.2750  165.2451 C.ar    1  UNL1       -0.0001
     15 C         142.7603  143.1331  164.6849 C.ar    1  UNL1        0.0031
     16 C         142.4232  144.4079  163.9701 C.ar    1  UNL1        0.0369
     17 O         140.6535  146.0997  163.1006 O.3     1  UNL1       -0.4740
     18 C         139.9311  146.0544  161.7868 C.3     1  UNL1        0.2226
     19 C         140.5400  145.3339  160.6206 C.3     1  UNL1        0.1201
     20 C         139.7456  144.0399  158.5123 C.3     1  UNL1        0.0898
     21 N         139.8268  144.1667  160.0047 N.3     1  UNL1       -0.2672
     22 C         139.1948  143.1265  160.8813 C.3     1  UNL1        0.0898
     23 C         142.2864  139.7948  163.6761 C.ar    1  UNL1       -0.0040
     24 C         140.9837  139.6568  162.9455 C.ar    1  UNL1       -0.0003
     25 C         140.9572  139.6915  161.4462 C.ar    1  UNL1       -0.0000
     26 C         142.2336  139.8642  160.6773 C.ar    1  UNL1       -0.0000
     27 C         143.5364  140.0022  161.4079 C.ar    1  UNL1       -0.0000
     28 C         143.5628  139.9675  162.9073 C.ar    1  UNL1       -0.0003
     29 C         142.6500  138.4852  165.8903 C.3     1  UNL1        0.0289
     30 C         144.0733  138.1842  166.2560 C.3     1  UNL1        0.0364
     31 C         144.3750  137.2160  167.3613 C.3     1  UNL1        0.1375
     32 O         145.6727  136.4638  167.3660 O.3     1  UNL1       -0.3820
     33 H         145.6983  135.8585  166.6085 H       1  UNL1        0.2104
@<TRIPOS>BOND
     1    20    21    1
     2    21    22    1
     3    21    19    1
     4    19    18    1
     5    18    17    1
     6    17    11    1
     7    11    12   ar
     8    12    13   ar
     9    13    14   ar
    10    14     1    1
    11     1     2    2
    12     2    29    1
    13    29    30    1
    14    30    31    1
    15    31    32    1
    16     2    23    1
    17    23    24   ar
    18    24    25   ar
    19    25    26   ar
    20    26    27   ar
    21    27    28   ar
    22     1     3    1
    23     3     4   ar
    24     4     5   ar
    25     5     6   ar
    26     6     7    1
    27     6     8   ar
    28     8     9   ar
    29    14    15   ar
    30    15    16   ar
    31    16    11   ar
    32    28    23   ar
    33     9     3   ar
    34    32    33    1
    35     7    10    1
