@<TRIPOS>MOLECULE
*****
 33 37 0 0 0
SMALL
GASTEIGER

@<TRIPOS>ATOM
      1 O         140.7534  136.9707  162.8961 O.2     1  UNL1       -0.2668
      2 C         140.4749  138.4249  163.1364 C.2     1  UNL1        0.2806
      3 N         140.5018  139.3929  161.9909 N.am    1  UNL1       -0.2999
      4 H         140.3190  140.3473  162.1486 H       1  UNL1        0.1498
      5 C         140.1694  138.9111  164.5222 C.ar    1  UNL1        0.2014
      6 C         139.0076  138.3386  165.2787 C.ar    1  UNL1        0.0843
      7 C         138.7021  138.8248  166.6644 C.ar    1  UNL1        0.2019
      8 O         137.5402  138.2524  167.4211 O.2     1  UNL1       -0.2864
      9 C         139.5586  139.8834  167.2936 C.ar    1  UNL1        0.0759
     10 C         139.2531  140.3696  168.6795 C.ar    1  UNL1        0.0382
     11 C         140.1095  141.4282  169.3087 C.ar    1  UNL1        0.1677
     12 F         139.8041  141.9144  170.6944 F       1  UNL1       -0.2018
     13 C         141.2714  142.0006  168.5520 C.ar    1  UNL1        0.1704
     14 F         142.1278  143.0592  169.1812 F       1  UNL1       -0.2017
     15 C         141.5768  141.5145  167.1663 C.ar    1  UNL1        0.0695
     16 C         140.7204  140.4558  166.5371 C.ar    1  UNL1        0.1509
     17 O         141.0258  139.9697  165.1514 O.2     1  UNL1       -0.4486
     18 C         140.8072  138.9067  160.6051 C.3     1  UNL1        0.0747
     19 C         139.6925  138.6775  159.6280 C.3     1  UNL1        0.0369
     20 C         139.9980  138.1913  158.2422 C.3     1  UNL1        0.0741
     21 N         141.4182  137.9345  157.8336 N.3     1  UNL1       -0.2688
     22 C         142.5330  138.1637  158.8107 C.3     1  UNL1        0.0741
     23 C         142.2275  138.6499  160.1964 C.3     1  UNL1        0.0369
     24 C         141.7237  137.4483  156.4478 C.3     1  UNL1        0.0992
     25 C         141.9899  135.9922  156.2055 C.ar    1  UNL1       -0.0029
     26 C         141.1094  135.2137  155.2734 C.ar    1  UNL1        0.0004
     27 C         141.3756  133.7576  155.0311 C.ar    1  UNL1        0.0399
     28 C         142.5223  133.0798  155.7209 C.ar    1  UNL1        0.1764
     29 C         143.4028  133.8583  156.6530 C.ar    1  UNL1        0.1762
     30 C         143.1366  135.3145  156.8952 C.ar    1  UNL1        0.0373
     31 O         144.4507  132.9271  157.1867 O.3     1  UNL1       -0.4346
     32 C         144.2179  131.5732  156.5845 C.3     1  UNL1        0.4294
     33 O         143.0261  131.6676  155.6786 O.3     1  UNL1       -0.4346
@<TRIPOS>BOND
     1     1     2    2
     2     2     3   am
     3     3    18    1
     4    18    19    1
     5    19    20    1
     6    20    21    1
     7    21    24    1
     8    24    25    1
     9    25    26   ar
    10    26    27   ar
    11    27    28   ar
    12    28    29   ar
    13    29    30   ar
    14    29    31    1
    15    31    32    1
    16    32    33    1
    17    21    22    1
    18    22    23    1
    19     2     5    1
    20     5     6   ar
    21     6     7   ar
    22     7     8    2
    23     7     9   ar
    24     9    10   ar
    25    10    11   ar
    26    11    12    1
    27    11    13   ar
    28    13    14    1
    29    13    15   ar
    30    15    16   ar
    31    16    17   ar
    32    23    18    1
    33    17     5   ar
    34    30    25   ar
    35    16     9   ar
    36    33    28    1
    37     3     4    1
@<TRIPOS>MOLECULE
*****
 33 37 0 0 0
SMALL
GASTEIGER

@<TRIPOS>ATOM
      1 O         139.3965  146.1193  160.9561 O.2     1  UNL1       -0.2668
      2 C         140.0931  144.8350  161.2959 C.2     1  UNL1        0.2806
      3 N         140.7423  144.0247  160.2134 N.am    1  UNL1       -0.2999
      4 H         141.1995  143.1818  160.4365 H       1  UNL1        0.1498
      5 C         140.1405  144.3611  162.7184 C.ar    1  UNL1        0.2014
      6 C         139.2418  144.9824  163.7462 C.ar    1  UNL1        0.0843
      7 C         139.2892  144.5085  165.1685 C.ar    1  UNL1        0.2019
      8 O         138.3905  145.1298  166.1964 O.2     1  UNL1       -0.2864
      9 C         140.2352  143.4134  165.5631 C.ar    1  UNL1        0.0759
     10 C         140.2826  142.9395  166.9855 C.ar    1  UNL1        0.0382
     11 C         141.2286  141.8443  167.3801 C.ar    1  UNL1        0.1677
     12 F         141.2760  141.3704  168.8024 F       1  UNL1       -0.2018
     13 C         142.1273  141.2231  166.3522 C.ar    1  UNL1        0.1704
     14 F         143.0733  140.1279  166.7468 F       1  UNL1       -0.2017
     15 C         142.0799  141.6970  164.9298 C.ar    1  UNL1        0.0695
     16 C         141.1339  142.7921  164.5353 C.ar    1  UNL1        0.1509
     17 O         141.0865  143.2660  163.1129 O.2     1  UNL1       -0.4486
     18 C         140.6950  144.4986  158.7910 C.3     1  UNL1        0.0747
     19 C         139.5848  144.0500  157.8876 C.3     1  UNL1        0.0369
     20 C         139.5375  144.5239  156.4652 C.3     1  UNL1        0.0741
     21 N         140.6004  145.4463  155.9463 N.3     1  UNL1       -0.2688
     22 C         141.7106  145.8949  156.8497 C.3     1  UNL1        0.0741
     23 C         141.7579  145.4210  158.2720 C.3     1  UNL1        0.0369
     24 C         140.5530  145.9202  154.5238 C.3     1  UNL1        0.0992
     25 C         140.2586  147.3598  154.2223 C.ar    1  UNL1       -0.0029
     26 C         140.7640  147.9787  152.9529 C.ar    1  UNL1        0.0004
     27 C         140.4696  149.4183  152.6514 C.ar    1  UNL1        0.0399
     28 C         139.6697  150.2389  153.6193 C.ar    1  UNL1        0.1764
     29 C         139.1642  149.6200  154.8887 C.ar    1  UNL1        0.1762
     30 C         139.4587  148.1803  155.1902 C.ar    1  UNL1        0.0373
     31 O         138.4071  150.6697  155.6468 O.3     1  UNL1       -0.4346
     32 C         138.4447  151.9374  154.8460 C.3     1  UNL1        0.4294
     33 O         139.2249  151.6713  153.5929 O.3     1  UNL1       -0.4346
@<TRIPOS>BOND
     1     1     2    2
     2     2     3   am
     3     3    18    1
     4    18    19    1
     5    19    20    1
     6    20    21    1
     7    21    24    1
     8    24    25    1
     9    25    26   ar
    10    26    27   ar
    11    27    28   ar
    12    28    29   ar
    13    29    30   ar
    14    29    31    1
    15    31    32    1
    16    32    33    1
    17    21    22    1
    18    22    23    1
    19     2     5    1
    20     5     6   ar
    21     6     7   ar
    22     7     8    2
    23     7     9   ar
    24     9    10   ar
    25    10    11   ar
    26    11    12    1
    27    11    13   ar
    28    13    14    1
    29    13    15   ar
    30    15    16   ar
    31    16    17   ar
    32    23    18    1
    33    17     5   ar
    34    30    25   ar
    35    16     9   ar
    36    33    28    1
    37     3     4    1
@<TRIPOS>MOLECULE
*****
 33 37 0 0 0
SMALL
GASTEIGER

@<TRIPOS>ATOM
      1 O         140.2888  145.5101  161.3212 O.2     1  UNL1       -0.2668
      2 C         141.2835  144.3877  161.3464 C.2     1  UNL1        0.2806
      3 N         141.7738  143.7910  160.0606 N.am    1  UNL1       -0.2999
      4 H         142.4267  143.0543  160.0772 H       1  UNL1        0.1498
      5 C         141.7881  143.8621  162.6577 C.ar    1  UNL1        0.2014
      6 C         143.2335  143.4917  162.8110 C.ar    1  UNL1        0.0843
      7 C         143.7380  142.9661  164.1222 C.ar    1  UNL1        0.2019
      8 O         145.1834  142.5958  164.2756 O.2     1  UNL1       -0.2864
      9 C         142.7970  142.8109  165.2800 C.ar    1  UNL1        0.0759
     10 C         143.3015  142.2852  166.5912 C.ar    1  UNL1        0.0382
     11 C         142.3606  142.1300  167.7490 C.ar    1  UNL1        0.1677
     12 F         142.8650  141.6044  169.0602 F       1  UNL1       -0.2018
     13 C         140.9151  142.5003  167.5956 C.ar    1  UNL1        0.1704
     14 F         139.9741  142.3451  168.7534 F       1  UNL1       -0.2017
     15 C         140.4106  143.0260  166.2844 C.ar    1  UNL1        0.0695
     16 C         141.3516  143.1812  165.1266 C.ar    1  UNL1        0.1509
     17 O         140.8471  143.7068  163.8155 O.2     1  UNL1       -0.4486
     18 C         141.2692  144.3166  158.7494 C.3     1  UNL1        0.0747
     19 C         141.9763  145.4550  158.0757 C.3     1  UNL1        0.0369
     20 C         141.4718  145.9806  156.7645 C.3     1  UNL1        0.0741
     21 N         140.2602  145.3677  156.1271 N.3     1  UNL1       -0.2688
     22 C         139.5531  144.2293  156.8008 C.3     1  UNL1        0.0741
     23 C         140.0576  143.7037  158.1119 C.3     1  UNL1        0.0369
     24 C         139.7556  145.8934  154.8158 C.3     1  UNL1        0.0992
     25 C         139.7306  147.3711  154.5599 C.ar    1  UNL1       -0.0029
     26 C         140.5669  147.9561  153.4606 C.ar    1  UNL1        0.0004
     27 C         140.5419  149.4339  153.2046 C.ar    1  UNL1        0.0399
     28 C         139.6806  150.3267  154.0479 C.ar    1  UNL1        0.1764
     29 C         138.8443  149.7417  155.1472 C.ar    1  UNL1        0.1762
     30 C         138.8694  148.2639  155.4031 C.ar    1  UNL1        0.0373
     31 O         138.0993  150.8626  155.8094 O.3     1  UNL1       -0.4346
     32 C         138.4751  152.1403  155.1193 C.3     1  UNL1        0.4294
     33 O         139.4524  151.8092  154.0307 O.3     1  UNL1       -0.4346
@<TRIPOS>BOND
     1     1     2    2
     2     2     3   am
     3     3    18    1
     4    18    19    1
     5    19    20    1
     6    20    21    1
     7    21    24    1
     8    24    25    1
     9    25    26   ar
    10    26    27   ar
    11    27    28   ar
    12    28    29   ar
    13    29    30   ar
    14    29    31    1
    15    31    32    1
    16    32    33    1
    17    21    22    1
    18    22    23    1
    19     2     5    1
    20     5     6   ar
    21     6     7   ar
    22     7     8    2
    23     7     9   ar
    24     9    10   ar
    25    10    11   ar
    26    11    12    1
    27    11    13   ar
    28    13    14    1
    29    13    15   ar
    30    15    16   ar
    31    16    17   ar
    32    23    18    1
    33    17     5   ar
    34    30    25   ar
    35    16     9   ar
    36    33    28    1
    37     3     4    1
@<TRIPOS>MOLECULE
*****
 33 37 0 0 0
SMALL
GASTEIGER

@<TRIPOS>ATOM
      1 O         142.5960  139.3447  158.6305 O.2     1  UNL1       -0.2668
      2 C         142.5931  137.8823  158.9644 C.2     1  UNL1        0.2806
      3 N         142.7177  137.4388  160.3919 N.am    1  UNL1       -0.2999
      4 H         142.7158  136.4790  160.6111 H       1  UNL1        0.1498
      5 C         142.4655  136.8635  157.8708 C.ar    1  UNL1        0.2014
      6 C         141.4335  137.0413  156.7969 C.ar    1  UNL1        0.0843
      7 C         141.3060  136.0225  155.7034 C.ar    1  UNL1        0.2019
      8 O         140.2740  136.2002  154.6294 O.2     1  UNL1       -0.2864
      9 C         142.2104  134.8260  155.6839 C.ar    1  UNL1        0.0759
     10 C         142.0828  133.8072  154.5903 C.ar    1  UNL1        0.0382
     11 C         142.9873  132.6107  154.5707 C.ar    1  UNL1        0.1677
     12 F         142.8597  131.5919  153.4772 F       1  UNL1       -0.2018
     13 C         144.0193  132.4330  155.6448 C.ar    1  UNL1        0.1704
     14 F         144.9237  131.2365  155.6252 F       1  UNL1       -0.2017
     15 C         144.1468  133.4517  156.7383 C.ar    1  UNL1        0.0695
     16 C         143.2424  134.6482  156.7578 C.ar    1  UNL1        0.1509
     17 O         143.3699  135.6670  157.8513 O.2     1  UNL1       -0.4486
     18 C         142.8453  138.4576  161.4855 C.3     1  UNL1        0.0747
     19 C         144.1969  138.7970  162.0403 C.3     1  UNL1        0.0369
     20 C         144.3244  139.8158  163.1338 C.3     1  UNL1        0.0741
     21 N         143.1004  140.4951  163.6725 N.3     1  UNL1       -0.2688
     22 C         141.7488  140.1556  163.1177 C.3     1  UNL1        0.0741
     23 C         141.6212  139.1369  162.0241 C.3     1  UNL1        0.0369
     24 C         143.2280  141.5139  164.7661 C.3     1  UNL1        0.0992
     25 C         142.9518  141.1260  166.1884 C.ar    1  UNL1       -0.0029
     26 C         142.9156  139.6778  166.5774 C.ar    1  UNL1        0.0004
     27 C         142.6394  139.2898  167.9998 C.ar    1  UNL1        0.0399
     28 C         142.3993  140.3502  169.0333 C.ar    1  UNL1        0.1764
     29 C         142.4355  141.7985  168.6443 C.ar    1  UNL1        0.1762
     30 C         142.7117  142.1863  167.2219 C.ar    1  UNL1        0.0373
     31 O         142.1631  142.6152  169.8726 O.3     1  UNL1       -0.4346
     32 C         141.9587  141.6717  171.0207 C.3     1  UNL1        0.4294
     33 O         142.1047  140.2719  170.5020 O.3     1  UNL1       -0.4346
@<TRIPOS>BOND
     1     1     2    2
     2     2     3   am
     3     3    18    1
     4    18    19    1
     5    19    20    1
     6    20    21    1
     7    21    24    1
     8    24    25    1
     9    25    26   ar
    10    26    27   ar
    11    27    28   ar
    12    28    29   ar
    13    29    30   ar
    14    29    31    1
    15    31    32    1
    16    32    33    1
    17    21    22    1
    18    22    23    1
    19     2     5    1
    20     5     6   ar
    21     6     7   ar
    22     7     8    2
    23     7     9   ar
    24     9    10   ar
    25    10    11   ar
    26    11    12    1
    27    11    13   ar
    28    13    14    1
    29    13    15   ar
    30    15    16   ar
    31    16    17   ar
    32    23    18    1
    33    17     5   ar
    34    30    25   ar
    35    16     9   ar
    36    33    28    1
    37     3     4    1
@<TRIPOS>MOLECULE
*****
 33 37 0 0 0
SMALL
GASTEIGER

@<TRIPOS>ATOM
      1 O         141.9905  137.9101  162.9686 O.2     1  UNL1       -0.2668
      2 C         141.6980  139.3749  163.1065 C.2     1  UNL1        0.2806
      3 N         141.4561  140.2097  161.8841 N.am    1  UNL1       -0.2999
      4 H         141.2641  141.1711  161.9746 H       1  UNL1        0.1498
      5 C         141.6473  140.0047  164.4670 C.ar    1  UNL1        0.2014
      6 C         142.6783  141.0200  164.8623 C.ar    1  UNL1        0.0843
      7 C         142.6276  141.6498  166.2227 C.ar    1  UNL1        0.2019
      8 O         143.6586  142.6651  166.6180 O.2     1  UNL1       -0.2864
      9 C         141.5460  141.2643  167.1878 C.ar    1  UNL1        0.0759
     10 C         141.4954  141.8941  168.5483 C.ar    1  UNL1        0.0382
     11 C         140.4138  141.5086  169.5134 C.ar    1  UNL1        0.1677
     12 F         140.3631  142.1384  170.8738 F       1  UNL1       -0.2018
     13 C         139.3827  140.4933  169.1181 C.ar    1  UNL1        0.1704
     14 F         138.3011  140.1078  170.0832 F       1  UNL1       -0.2017
     15 C         139.4334  139.8635  167.7577 C.ar    1  UNL1        0.0695
     16 C         140.5150  140.2490  166.7925 C.ar    1  UNL1        0.1509
     17 O         140.5657  139.6192  165.4321 O.2     1  UNL1       -0.4486
     18 C         141.5067  139.5799  160.5236 C.3     1  UNL1        0.0747
     19 C         140.2586  139.0174  159.9106 C.3     1  UNL1        0.0369
     20 C         140.3093  138.3876  158.5502 C.3     1  UNL1        0.0741
     21 N         141.6081  138.3203  157.8028 N.3     1  UNL1       -0.2688
     22 C         142.8562  138.8827  158.4158 C.3     1  UNL1        0.0741
     23 C         142.8055  139.5125  159.7762 C.3     1  UNL1        0.0369
     24 C         141.6587  137.6904  156.4423 C.3     1  UNL1        0.0992
     25 C         141.9231  136.2203  156.3058 C.ar    1  UNL1       -0.0029
     26 C         141.1521  135.4091  155.3071 C.ar    1  UNL1        0.0004
     27 C         141.4166  133.9389  155.1706 C.ar    1  UNL1        0.0399
     28 C         142.4521  133.2799  156.0329 C.ar    1  UNL1        0.1764
     29 C         143.2231  134.0911  157.0317 C.ar    1  UNL1        0.1762
     30 C         142.9586  135.5613  157.1681 C.ar    1  UNL1        0.0373
     31 O         144.1751  133.1726  157.7389 O.3     1  UNL1       -0.4346
     32 C         143.9925  131.7939  157.1772 C.3     1  UNL1        0.4294
     33 O         142.9276  131.8601  156.1229 O.3     1  UNL1       -0.4346
@<TRIPOS>BOND
     1     1     2    2
     2     2     3   am
     3     3    18    1
     4    18    19    1
     5    19    20    1
     6    20    21    1
     7    21    24    1
     8    24    25    1
     9    25    26   ar
    10    26    27   ar
    11    27    28   ar
    12    28    29   ar
    13    29    30   ar
    14    29    31    1
    15    31    32    1
    16    32    33    1
    17    21    22    1
    18    22    23    1
    19     2     5    1
    20     5     6   ar
    21     6     7   ar
    22     7     8    2
    23     7     9   ar
    24     9    10   ar
    25    10    11   ar
    26    11    12    1
    27    11    13   ar
    28    13    14    1
    29    13    15   ar
    30    15    16   ar
    31    16    17   ar
    32    23    18    1
    33    17     5   ar
    34    30    25   ar
    35    16     9   ar
    36    33    28    1
    37     3     4    1
@<TRIPOS>MOLECULE
*****
 33 37 0 0 0
SMALL
GASTEIGER

@<TRIPOS>ATOM
      1 O         141.8856  141.4398  160.3639 O.2     1  UNL1       -0.2668
      2 C         141.2415  142.2376  161.4588 C.2     1  UNL1        0.2806
      3 N         140.4402  143.4605  161.1239 N.am    1  UNL1       -0.2999
      4 H         140.0175  143.9842  161.8425 H       1  UNL1        0.1498
      5 C         141.3989  141.8124  162.8887 C.ar    1  UNL1        0.2014
      6 C         140.7431  142.6020  163.9825 C.ar    1  UNL1        0.0843
      7 C         140.9004  142.1768  165.4123 C.ar    1  UNL1        0.2019
      8 O         140.2446  142.9664  166.5061 O.2     1  UNL1       -0.2864
      9 C         141.7135  140.9619  165.7483 C.ar    1  UNL1        0.0759
     10 C         141.8708  140.5367  167.1782 C.ar    1  UNL1        0.0382
     11 C         142.6840  139.3218  167.5142 C.ar    1  UNL1        0.1677
     12 F         142.8413  138.8966  168.9440 F       1  UNL1       -0.2018
     13 C         143.3398  138.5322  166.4204 C.ar    1  UNL1        0.1704
     14 F         144.1529  137.3173  166.7564 F       1  UNL1       -0.2017
     15 C         143.1824  138.9574  164.9906 C.ar    1  UNL1        0.0695
     16 C         142.3693  140.1723  164.6545 C.ar    1  UNL1        0.1509
     17 O         142.2120  140.5975  163.2247 O.2     1  UNL1       -0.4486
     18 C         140.2829  143.8858  159.6940 C.3     1  UNL1        0.0747
     19 C         141.1227  145.0016  159.1466 C.3     1  UNL1        0.0369
     20 C         140.9654  145.4268  157.7168 C.3     1  UNL1        0.0741
     21 N         139.9682  144.7361  156.8343 N.3     1  UNL1       -0.2688
     22 C         139.1284  143.6203  157.3817 C.3     1  UNL1        0.0741
     23 C         139.2858  143.1951  158.8115 C.3     1  UNL1        0.0369
     24 C         139.8109  145.1613  155.4044 C.3     1  UNL1        0.0992
     25 C         139.7488  146.6194  155.0581 C.ar    1  UNL1       -0.0029
     26 C         140.5130  147.1433  153.8784 C.ar    1  UNL1        0.0004
     27 C         140.4509  148.6014  153.5320 C.ar    1  UNL1        0.0399
     28 C         139.6246  149.5357  154.3654 C.ar    1  UNL1        0.1764
     29 C         138.8605  149.0119  155.5451 C.ar    1  UNL1        0.1762
     30 C         138.9226  147.5537  155.8914 C.ar    1  UNL1        0.0373
     31 O         138.1366  150.1637  156.1770 O.3     1  UNL1       -0.4346
     32 C         138.4533  151.3993  155.3879 C.3     1  UNL1        0.4294
     33 O         139.3730  151.0113  154.2683 O.3     1  UNL1       -0.4346
@<TRIPOS>BOND
     1     1     2    2
     2     2     3   am
     3     3    18    1
     4    18    19    1
     5    19    20    1
     6    20    21    1
     7    21    24    1
     8    24    25    1
     9    25    26   ar
    10    26    27   ar
    11    27    28   ar
    12    28    29   ar
    13    29    30   ar
    14    29    31    1
    15    31    32    1
    16    32    33    1
    17    21    22    1
    18    22    23    1
    19     2     5    1
    20     5     6   ar
    21     6     7   ar
    22     7     8    2
    23     7     9   ar
    24     9    10   ar
    25    10    11   ar
    26    11    12    1
    27    11    13   ar
    28    13    14    1
    29    13    15   ar
    30    15    16   ar
    31    16    17   ar
    32    23    18    1
    33    17     5   ar
    34    30    25   ar
    35    16     9   ar
    36    33    28    1
    37     3     4    1
@<TRIPOS>MOLECULE
*****
 33 37 0 0 0
SMALL
GASTEIGER

@<TRIPOS>ATOM
      1 O         141.0713  143.9451  160.2239 O.2     1  UNL1       -0.2668
      2 C         139.9631  143.9596  159.2131 C.2     1  UNL1        0.2806
      3 N         138.7701  143.0688  159.3952 N.am    1  UNL1       -0.2999
      4 H         138.0428  143.0783  158.7318 H       1  UNL1        0.1498
      5 C         140.0480  144.8649  158.0200 C.ar    1  UNL1        0.2014
      6 C         140.8565  144.4563  156.8245 C.ar    1  UNL1        0.0843
      7 C         140.9413  145.3616  155.6315 C.ar    1  UNL1        0.2019
      8 O         141.7498  144.9530  154.4359 O.2     1  UNL1       -0.2864
      9 C         140.2177  146.6755  155.6341 C.ar    1  UNL1        0.0759
     10 C         140.3026  147.5808  154.4411 C.ar    1  UNL1        0.0382
     11 C         139.5790  148.8947  154.4437 C.ar    1  UNL1        0.1677
     12 F         139.6639  149.8001  153.2507 F       1  UNL1       -0.2018
     13 C         138.7705  149.3034  155.6393 C.ar    1  UNL1        0.1704
     14 F         138.0470  150.6173  155.6420 F       1  UNL1       -0.2017
     15 C         138.6857  148.3981  156.8323 C.ar    1  UNL1        0.0695
     16 C         139.4093  147.0841  156.8297 C.ar    1  UNL1        0.1509
     17 O         139.3244  146.1788  158.0226 O.2     1  UNL1       -0.4486
     18 C         138.6853  142.1635  160.5883 C.3     1  UNL1        0.0747
     19 C         137.9790  142.6226  161.8294 C.3     1  UNL1        0.0369
     20 C         137.8942  141.7172  163.0223 C.3     1  UNL1        0.0741
     21 N         138.5155  140.3528  162.9742 N.3     1  UNL1       -0.2688
     22 C         139.2218  139.8938  161.7330 C.3     1  UNL1        0.0741
     23 C         139.3066  140.7991  160.5401 C.3     1  UNL1        0.0369
     24 C         138.4307  139.4475  164.1672 C.3     1  UNL1        0.0992
     25 C         139.2230  139.7582  165.4023 C.ar    1  UNL1       -0.0029
     26 C         140.6253  140.2772  165.2830 C.ar    1  UNL1        0.0004
     27 C         141.4177  140.5879  166.5181 C.ar    1  UNL1        0.0399
     28 C         140.8078  140.3795  167.8727 C.ar    1  UNL1        0.1764
     29 C         139.4055  139.8605  167.9920 C.ar    1  UNL1        0.1762
     30 C         138.6131  139.5499  166.7568 C.ar    1  UNL1        0.0373
     31 O         139.0724  139.7564  169.4508 O.3     1  UNL1       -0.4346
     32 C         140.2687  140.2110  170.2330 C.3     1  UNL1        0.4294
     33 O         141.3413  140.5961  169.2578 O.3     1  UNL1       -0.4346
@<TRIPOS>BOND
     1     1     2    2
     2     2     3   am
     3     3    18    1
     4    18    19    1
     5    19    20    1
     6    20    21    1
     7    21    24    1
     8    24    25    1
     9    25    26   ar
    10    26    27   ar
    11    27    28   ar
    12    28    29   ar
    13    29    30   ar
    14    29    31    1
    15    31    32    1
    16    32    33    1
    17    21    22    1
    18    22    23    1
    19     2     5    1
    20     5     6   ar
    21     6     7   ar
    22     7     8    2
    23     7     9   ar
    24     9    10   ar
    25    10    11   ar
    26    11    12    1
    27    11    13   ar
    28    13    14    1
    29    13    15   ar
    30    15    16   ar
    31    16    17   ar
    32    23    18    1
    33    17     5   ar
    34    30    25   ar
    35    16     9   ar
    36    33    28    1
    37     3     4    1
@<TRIPOS>MOLECULE
*****
 33 37 0 0 0
SMALL
GASTEIGER

@<TRIPOS>ATOM
      1 O         139.4190  144.4302  160.9564 O.2     1  UNL1       -0.2668
      2 C         140.4897  143.3821  160.8848 C.2     1  UNL1        0.2806
      3 N         141.2521  143.1747  159.6098 N.am    1  UNL1       -0.2999
      4 H         141.9548  142.4868  159.5628 H       1  UNL1        0.1498
      5 C         140.7979  142.5414  162.0883 C.ar    1  UNL1        0.2014
      6 C         139.7561  142.3383  163.1481 C.ar    1  UNL1        0.0843
      7 C         140.0644  141.4976  164.3515 C.ar    1  UNL1        0.2019
      8 O         139.0225  141.2946  165.4114 O.2     1  UNL1       -0.2864
      9 C         141.4145  140.8600  164.4950 C.ar    1  UNL1        0.0759
     10 C         141.7227  140.0193  165.6985 C.ar    1  UNL1        0.0382
     11 C         143.0728  139.3816  165.8420 C.ar    1  UNL1        0.1677
     12 F         143.3811  138.5410  167.0454 F       1  UNL1       -0.2018
     13 C         144.1147  139.5847  164.7821 C.ar    1  UNL1        0.1704
     14 F         145.4648  138.9471  164.9257 F       1  UNL1       -0.2017
     15 C         143.8064  140.4254  163.5787 C.ar    1  UNL1        0.0695
     16 C         142.4563  141.0630  163.4352 C.ar    1  UNL1        0.1509
     17 O         142.1480  141.9037  162.2318 O.2     1  UNL1       -0.4486
     18 C         140.9439  144.0154  158.4063 C.3     1  UNL1        0.0747
     19 C         139.7580  143.6895  157.5475 C.3     1  UNL1        0.0369
     20 C         139.4499  144.5302  156.3441 C.3     1  UNL1        0.0741
     21 N         140.3275  145.6968  155.9995 N.3     1  UNL1       -0.2688
     22 C         141.5133  146.0227  156.8583 C.3     1  UNL1        0.0741
     23 C         141.8215  145.1820  158.0617 C.3     1  UNL1        0.0369
     24 C         140.0192  146.5375  154.7961 C.3     1  UNL1        0.0992
     25 C         139.5747  147.9597  154.9686 C.ar    1  UNL1       -0.0029
     26 C         138.7942  148.3591  156.1857 C.ar    1  UNL1        0.0004
     27 C         138.3497  149.7813  156.3582 C.ar    1  UNL1        0.0399
     28 C         138.6857  150.8041  155.3136 C.ar    1  UNL1        0.1764
     29 C         139.4662  150.4046  154.0965 C.ar    1  UNL1        0.1762
     30 C         139.9107  148.9824  153.9240 C.ar    1  UNL1        0.0373
     31 O         139.6477  151.6237  153.2416 O.3     1  UNL1       -0.4346
     32 C         138.9795  152.7765  153.9303 C.3     1  UNL1        0.4294
     33 O         138.3849  152.2700  155.2109 O.3     1  UNL1       -0.4346
@<TRIPOS>BOND
     1     1     2    2
     2     2     3   am
     3     3    18    1
     4    18    19    1
     5    19    20    1
     6    20    21    1
     7    21    24    1
     8    24    25    1
     9    25    26   ar
    10    26    27   ar
    11    27    28   ar
    12    28    29   ar
    13    29    30   ar
    14    29    31    1
    15    31    32    1
    16    32    33    1
    17    21    22    1
    18    22    23    1
    19     2     5    1
    20     5     6   ar
    21     6     7   ar
    22     7     8    2
    23     7     9   ar
    24     9    10   ar
    25    10    11   ar
    26    11    12    1
    27    11    13   ar
    28    13    14    1
    29    13    15   ar
    30    15    16   ar
    31    16    17   ar
    32    23    18    1
    33    17     5   ar
    34    30    25   ar
    35    16     9   ar
    36    33    28    1
    37     3     4    1
@<TRIPOS>MOLECULE
*****
 33 37 0 0 0
SMALL
GASTEIGER

@<TRIPOS>ATOM
      1 O         138.9223  144.3616  161.2110 O.2     1  UNL1       -0.2668
      2 C         140.1730  143.5536  161.3927 C.2     1  UNL1        0.2806
      3 N         141.0864  143.3132  160.2275 N.am    1  UNL1       -0.2999
      4 H         141.9073  142.7828  160.3468 H       1  UNL1        0.1498
      5 C         140.5101  142.9860  162.7397 C.ar    1  UNL1        0.2014
      6 C         141.8147  143.3319  163.3941 C.ar    1  UNL1        0.0843
      7 C         142.1518  142.7644  164.7410 C.ar    1  UNL1        0.2019
      8 O         143.4565  143.1103  165.3955 O.2     1  UNL1       -0.2864
      9 C         141.1843  141.8509  165.4335 C.ar    1  UNL1        0.0759
     10 C         141.5215  141.2833  166.7805 C.ar    1  UNL1        0.0382
     11 C         140.5540  140.3698  167.4729 C.ar    1  UNL1        0.1677
     12 F         140.8911  139.8022  168.8198 F       1  UNL1       -0.2018
     13 C         139.2494  140.0239  166.8184 C.ar    1  UNL1        0.1704
     14 F         138.2819  139.1104  167.5109 F       1  UNL1       -0.2017
     15 C         138.9123  140.5915  165.4715 C.ar    1  UNL1        0.0695
     16 C         139.8798  141.5049  164.7791 C.ar    1  UNL1        0.1509
     17 O         139.5427  142.0725  163.4322 O.2     1  UNL1       -0.4486
     18 C         140.7493  143.8807  158.8806 C.3     1  UNL1        0.0747
     19 C         141.3305  145.1961  158.4541 C.3     1  UNL1        0.0369
     20 C         140.9933  145.7636  157.1072 C.3     1  UNL1        0.0741
     21 N         140.0749  145.0157  156.1867 N.3     1  UNL1       -0.2688
     22 C         139.4937  143.7004  156.6132 C.3     1  UNL1        0.0741
     23 C         139.8309  143.1329  157.9601 C.3     1  UNL1        0.0369
     24 C         139.7378  145.5833  154.8398 C.3     1  UNL1        0.0992
     25 C         139.7242  147.0690  154.6340 C.ar    1  UNL1       -0.0029
     26 C         140.6083  147.6902  153.5936 C.ar    1  UNL1        0.0004
     27 C         140.5948  149.1759  153.3878 C.ar    1  UNL1        0.0399
     28 C         139.6970  150.0406  154.2224 C.ar    1  UNL1        0.1764
     29 C         138.8129  149.4194  155.2628 C.ar    1  UNL1        0.1762
     30 C         138.8265  147.9336  155.4686 C.ar    1  UNL1        0.0373
     31 O         138.0393  150.5180  155.9296 O.3     1  UNL1       -0.4346
     32 C         138.4453  151.8181  155.3013 C.3     1  UNL1        0.4294
     33 O         139.4698  151.5231  154.2462 O.3     1  UNL1       -0.4346
@<TRIPOS>BOND
     1     1     2    2
     2     2     3   am
     3     3    18    1
     4    18    19    1
     5    19    20    1
     6    20    21    1
     7    21    24    1
     8    24    25    1
     9    25    26   ar
    10    26    27   ar
    11    27    28   ar
    12    28    29   ar
    13    29    30   ar
    14    29    31    1
    15    31    32    1
    16    32    33    1
    17    21    22    1
    18    22    23    1
    19     2     5    1
    20     5     6   ar
    21     6     7   ar
    22     7     8    2
    23     7     9   ar
    24     9    10   ar
    25    10    11   ar
    26    11    12    1
    27    11    13   ar
    28    13    14    1
    29    13    15   ar
    30    15    16   ar
    31    16    17   ar
    32    23    18    1
    33    17     5   ar
    34    30    25   ar
    35    16     9   ar
    36    33    28    1
    37     3     4    1
