@<TRIPOS>MOLECULE
*****
 31 34 0 0 0
SMALL
GASTEIGER

@<TRIPOS>ATOM
      1 C         139.4223  139.5681  167.4865 C.ar    1  UNL1        0.1103
      2 C         138.0340  139.0910  167.7947 C.ar    1  UNL1        0.1281
      3 N         137.4808  138.4454  166.5590 N.ar    1  UNL1       -0.1619
      4 N         138.5272  138.5234  165.4870 N.ar    1  UNL1       -0.2104
      5 C         138.5423  138.0523  164.0630 C.ar    1  UNL1        0.1050
      6 C         139.7575  138.2750  163.2123 C.ar    1  UNL1        0.0551
      7 C         140.9574  138.9689  163.7856 C.ar    1  UNL1        0.1350
      8 N         140.9423  139.4400  165.2096 N.ar    1  UNL1       -0.2116
      9 C         139.7271  139.2173  166.0603 C.ar    1  UNL1        0.1710
     10 N         142.1726  139.1916  162.9348 N.pl3   1  UNL1       -0.2903
     11 C         142.8461  138.0280  162.2697 C.3     1  UNL1        0.1093
     12 C         144.0613  138.2507  161.4189 C.3     1  UNL1        0.0904
     13 N         144.6029  139.6371  161.2332 N.3     1  UNL1       -0.2946
     14 C         143.9294  140.8008  161.8984 C.3     1  UNL1        0.0904
     15 C         142.7143  140.5780  162.7491 C.3     1  UNL1        0.1093
     16 H         144.5935  139.8252  160.2308 H       1  UNL1        0.1233
     17 N         141.0794  141.5031  167.9964 N.am    1  UNL1       -0.2777
     18 C         140.3441  140.2723  168.4375 C.2     1  UNL1        0.2541
     19 O         140.5305  139.7459  169.8296 O.2     1  UNL1       -0.2696
     20 H         140.9571  141.8487  167.0826 H       1  UNL1        0.1553
     21 C         145.4505  143.1926  170.4294 C.3     1  UNL1        0.1538
     22 N         144.0103  142.9839  170.0657 N.ar    1  UNL1       -0.2459
     23 C         143.4989  142.1243  168.9479 C.ar    1  UNL1        0.1115
     24 C         142.0012  142.2074  168.9474 C.ar    1  UNL1        0.0936
     25 C         141.5870  143.1183  170.0648 C.ar    1  UNL1        0.1686
     26 N         142.8287  143.5983  170.7560 N.ar    1  UNL1       -0.1632
     27 C         140.1784  143.4849  170.4274 C.2     1  UNL1        0.2635
     28 N         139.2226  142.4248  170.8887 N.am    1  UNL1       -0.3240
     29 O         139.7256  144.9115  170.3287 O.2     1  UNL1       -0.2686
     30 H         139.5198  141.4885  170.9534 H       1  UNL1        0.1453
     31 H         138.2981  142.6654  171.1266 H       1  UNL1        0.1453
@<TRIPOS>BOND
     1    21    22    1
     2    22    23   ar
     3    23    24   ar
     4    24    17    1
     5    17    18   am
     6    18    19    2
     7    18     1    1
     8     1     2   ar
     9     2     3   ar
    10     3     4   ar
    11     4     5   ar
    12     5     6   ar
    13     6     7   ar
    14     7    10    1
    15    10    11    1
    16    11    12    1
    17    12    13    1
    18    13    14    1
    19    14    15    1
    20     7     8   ar
    21     8     9   ar
    22    24    25   ar
    23    25    27    1
    24    27    28   am
    25    27    29    2
    26    25    26   ar
    27    26    22   ar
    28     9     1   ar
    29     9     4   ar
    30    15    10    1
    31    17    20    1
    32    13    16    1
    33    28    30    1
    34    28    31    1
@<TRIPOS>MOLECULE
*****
 31 34 0 0 0
SMALL
GASTEIGER

@<TRIPOS>ATOM
      1 C         142.4664  140.8961  162.9799 C.ar    1  UNL1        0.1103
      2 C         142.8450  139.6163  162.2952 C.ar    1  UNL1        0.1281
      3 N         143.1208  138.5889  163.3527 N.ar    1  UNL1       -0.1619
      4 N         142.9127  139.2337  164.6910 N.ar    1  UNL1       -0.2104
      5 C         143.0392  138.7066  166.0896 C.ar    1  UNL1        0.1050
      6 C         142.7613  139.6055  167.2578 C.ar    1  UNL1        0.0551
      7 C         142.3568  141.0315  167.0273 C.ar    1  UNL1        0.1350
      8 N         142.2303  141.5585  165.6287 N.ar    1  UNL1       -0.2116
      9 C         142.5082  140.6596  164.4606 C.ar    1  UNL1        0.1710
     10 N         142.0789  141.9304  168.1956 N.pl3   1  UNL1       -0.2903
     11 C         143.1283  142.1405  169.2466 C.3     1  UNL1        0.1093
     12 C         142.8504  143.0394  170.4149 C.3     1  UNL1        0.0904
     13 N         141.5231  143.7282  170.5321 N.3     1  UNL1       -0.2946
     14 C         140.4736  143.5181  169.4810 C.3     1  UNL1        0.0904
     15 C         140.7516  142.6192  168.3129 C.3     1  UNL1        0.1093
     16 H         141.7128  144.7299  170.5626 H       1  UNL1        0.1233
     17 N         140.9127  142.2525  161.3999 N.am    1  UNL1       -0.2777
     18 C         142.1088  142.1859  162.3028 C.2     1  UNL1        0.2541
     19 O         142.9471  143.4090  162.5285 O.2     1  UNL1       -0.2696
     20 H         140.3624  141.4497  161.2518 H       1  UNL1        0.1553
     21 C         140.2851  145.9869  157.7201 C.3     1  UNL1        0.1538
     22 N         140.2666  145.2588  159.0314 N.ar    1  UNL1       -0.2459
     23 C         140.7686  143.8663  159.2739 C.ar    1  UNL1        0.1115
     24 C         140.5551  143.5424  160.7228 C.ar    1  UNL1        0.0936
     25 C         139.9212  144.7347  161.3759 C.ar    1  UNL1        0.1686
     26 N         139.7429  145.7956  160.3305 N.ar    1  UNL1       -0.1632
     27 C         139.5336  144.8466  162.8206 C.2     1  UNL1        0.2635
     28 N         140.5561  145.2465  163.8426 N.am    1  UNL1       -0.3240
     29 O         138.1235  144.5585  163.2434 O.2     1  UNL1       -0.2686
     30 H         141.4816  145.4355  163.5651 H       1  UNL1        0.1453
     31 H         140.3018  145.3199  164.7908 H       1  UNL1        0.1453
@<TRIPOS>BOND
     1    21    22    1
     2    22    23   ar
     3    23    24   ar
     4    24    17    1
     5    17    18   am
     6    18    19    2
     7    18     1    1
     8     1     2   ar
     9     2     3   ar
    10     3     4   ar
    11     4     5   ar
    12     5     6   ar
    13     6     7   ar
    14     7    10    1
    15    10    11    1
    16    11    12    1
    17    12    13    1
    18    13    14    1
    19    14    15    1
    20     7     8   ar
    21     8     9   ar
    22    24    25   ar
    23    25    27    1
    24    27    28   am
    25    27    29    2
    26    25    26   ar
    27    26    22   ar
    28     9     1   ar
    29     9     4   ar
    30    15    10    1
    31    17    20    1
    32    13    16    1
    33    28    30    1
    34    28    31    1
@<TRIPOS>MOLECULE
*****
 31 34 0 0 0
SMALL
GASTEIGER

@<TRIPOS>ATOM
      1 C         141.2271  138.6972  164.2052 C.ar    1  UNL1        0.1103
      2 C         141.1574  137.2689  163.7524 C.ar    1  UNL1        0.1281
      3 N         140.6314  137.2532  162.3477 N.ar    1  UNL1       -0.1619
      4 N         140.3760  138.6717  161.9324 N.ar    1  UNL1       -0.2104
      5 C         139.8558  139.2660  160.6572 C.ar    1  UNL1        0.1050
      6 C         139.7037  140.7528  160.5301 C.ar    1  UNL1        0.0551
      7 C         140.0719  141.6453  161.6781 C.ar    1  UNL1        0.1350
      8 N         140.5921  141.0510  162.9533 N.ar    1  UNL1       -0.2116
      9 C         140.7441  139.5642  163.0804 C.ar    1  UNL1        0.1710
     10 N         139.9198  143.1322  161.5508 N.pl3   1  UNL1       -0.2903
     11 C         139.2636  143.9157  162.6488 C.3     1  UNL1        0.1093
     12 C         139.1115  145.4026  162.5216 C.3     1  UNL1        0.0904
     13 N         139.6156  146.1059  161.2964 N.3     1  UNL1       -0.2946
     14 C         140.2718  145.3224  160.1983 C.3     1  UNL1        0.0904
     15 C         140.4238  143.8356  160.3256 C.3     1  UNL1        0.1093
     16 H         140.2962  146.7967  161.6124 H       1  UNL1        0.1233
     17 N         141.0534  140.3699  166.1858 N.am    1  UNL1       -0.2777
     18 C         141.6971  139.1748  165.5473 C.2     1  UNL1        0.2541
     19 O         142.8107  138.4574  166.2508 O.2     1  UNL1       -0.2696
     20 H         140.3225  140.8408  165.7240 H       1  UNL1        0.1553
     21 C         143.9966  142.5360  169.9971 C.3     1  UNL1        0.1538
     22 N         142.8763  141.8431  169.2796 N.ar    1  UNL1       -0.2459
     23 C         142.8184  141.5501  167.8097 C.ar    1  UNL1        0.1115
     24 C         141.5235  140.8474  167.5278 C.ar    1  UNL1        0.0936
     25 C         140.7811  140.7061  168.8235 C.ar    1  UNL1        0.1686
     26 N         141.6172  141.3215  169.9062 N.ar    1  UNL1       -0.1632
     27 C         139.4384  140.0625  169.0047 C.2     1  UNL1        0.2635
     28 N         138.7512  140.1232  170.3366 N.am    1  UNL1       -0.3240
     29 O         138.7829  139.3581  167.8539 O.2     1  UNL1       -0.2686
     30 H         139.1814  140.5855  171.0919 H       1  UNL1        0.1453
     31 H         137.8699  139.7007  170.4555 H       1  UNL1        0.1453
@<TRIPOS>BOND
     1    21    22    1
     2    22    23   ar
     3    23    24   ar
     4    24    17    1
     5    17    18   am
     6    18    19    2
     7    18     1    1
     8     1     2   ar
     9     2     3   ar
    10     3     4   ar
    11     4     5   ar
    12     5     6   ar
    13     6     7   ar
    14     7    10    1
    15    10    11    1
    16    11    12    1
    17    12    13    1
    18    13    14    1
    19    14    15    1
    20     7     8   ar
    21     8     9   ar
    22    24    25   ar
    23    25    27    1
    24    27    28   am
    25    27    29    2
    26    25    26   ar
    27    26    22   ar
    28     9     1   ar
    29     9     4   ar
    30    15    10    1
    31    17    20    1
    32    13    16    1
    33    28    30    1
    34    28    31    1
@<TRIPOS>MOLECULE
*****
 31 34 0 0 0
SMALL
GASTEIGER

@<TRIPOS>ATOM
      1 C         144.1057  142.2848  162.9703 C.ar    1  UNL1        0.1103
      2 C         145.6000  142.1634  162.9215 C.ar    1  UNL1        0.1281
      3 N         145.9931  140.9549  163.7183 N.ar    1  UNL1       -0.1619
      4 N         144.7417  140.3294  164.2595 N.ar    1  UNL1       -0.2104
      5 C         144.5138  139.1175  165.1136 C.ar    1  UNL1        0.1050
      6 C         143.1193  138.7277  165.5053 C.ar    1  UNL1        0.0551
      7 C         141.9529  139.5497  165.0430 C.ar    1  UNL1        0.1350
      8 N         142.1808  140.7615  164.1889 N.ar    1  UNL1       -0.2116
      9 C         143.5753  141.1513  163.7972 C.ar    1  UNL1        0.1710
     10 N         140.5584  139.1597  165.4348 N.pl3   1  UNL1       -0.2903
     11 C         139.8530  139.8999  166.5323 C.3     1  UNL1        0.1093
     12 C         138.4585  139.5099  166.9241 C.3     1  UNL1        0.0904
     13 N         137.7694  138.3799  166.2183 N.3     1  UNL1       -0.2946
     14 C         138.4749  137.6398  165.1207 C.3     1  UNL1        0.0904
     15 C         139.8693  138.0297  164.7290 C.3     1  UNL1        0.1093
     16 H         136.9151  138.7628  165.8134 H       1  UNL1        0.1233
     17 N         142.0777  142.9781  161.5016 N.am    1  UNL1       -0.2777
     18 C         143.2858  143.3523  162.3083 C.2     1  UNL1        0.2541
     19 O         143.6738  144.7939  162.4529 O.2     1  UNL1       -0.2696
     20 H         141.8230  142.0319  161.4067 H       1  UNL1        0.1553
     21 C         139.9746  146.1491  157.8407 C.3     1  UNL1        0.1538
     22 N         140.2911  145.5031  159.1570 N.ar    1  UNL1       -0.2459
     23 C         141.2533  144.3734  159.3760 C.ar    1  UNL1        0.1115
     24 C         141.2578  144.0456  160.8397 C.ar    1  UNL1        0.0936
     25 C         140.2984  144.9727  161.5253 C.ar    1  UNL1        0.1686
     26 N         139.7009  145.8735  160.4853 N.ar    1  UNL1       -0.1632
     27 C         139.9905  144.9950  162.9932 C.2     1  UNL1        0.2635
     28 N         141.0144  145.4990  163.9667 N.am    1  UNL1       -0.3240
     29 O         138.6587  144.5133  163.4876 O.2     1  UNL1       -0.2686
     30 H         141.8884  145.8152  163.6421 H       1  UNL1        0.1453
     31 H         140.8123  145.5137  164.9301 H       1  UNL1        0.1453
@<TRIPOS>BOND
     1    21    22    1
     2    22    23   ar
     3    23    24   ar
     4    24    17    1
     5    17    18   am
     6    18    19    2
     7    18     1    1
     8     1     2   ar
     9     2     3   ar
    10     3     4   ar
    11     4     5   ar
    12     5     6   ar
    13     6     7   ar
    14     7    10    1
    15    10    11    1
    16    11    12    1
    17    12    13    1
    18    13    14    1
    19    14    15    1
    20     7     8   ar
    21     8     9   ar
    22    24    25   ar
    23    25    27    1
    24    27    28   am
    25    27    29    2
    26    25    26   ar
    27    26    22   ar
    28     9     1   ar
    29     9     4   ar
    30    15    10    1
    31    17    20    1
    32    13    16    1
    33    28    30    1
    34    28    31    1
@<TRIPOS>MOLECULE
*****
 31 34 0 0 0
SMALL
GASTEIGER

@<TRIPOS>ATOM
      1 C         139.7495  140.8342  163.2616 C.ar    1  UNL1        0.1103
      2 C         138.8599  139.7457  162.7382 C.ar    1  UNL1        0.1281
      3 N         138.3643  138.9493  163.9086 N.ar    1  UNL1       -0.1619
      4 N         138.9476  139.5454  165.1554 N.ar    1  UNL1       -0.2104
      5 C         138.8098  139.1780  166.6031 C.ar    1  UNL1        0.1050
      6 C         139.5281  139.9755  167.6509 C.ar    1  UNL1        0.0551
      7 C         140.3842  141.1404  167.2510 C.ar    1  UNL1        0.1350
      8 N         140.5220  141.5079  165.8033 N.ar    1  UNL1       -0.2116
      9 C         139.8037  140.7104  164.7555 C.ar    1  UNL1        0.1710
     10 N         141.1025  141.9380  168.2989 N.pl3   1  UNL1       -0.2903
     11 C         140.3857  143.0347  169.0292 C.3     1  UNL1        0.1093
     12 C         141.1040  143.8322  170.0771 C.3     1  UNL1        0.0904
     13 N         142.5391  143.5330  170.3947 N.3     1  UNL1       -0.2946
     14 C         143.2560  142.4362  169.6643 C.3     1  UNL1        0.0904
     15 C         142.5376  141.6388  168.6165 C.3     1  UNL1        0.1093
     16 H         142.5789  143.3008  171.3871 H       1  UNL1        0.1233
     17 N         139.8845  142.3002  161.1208 N.am    1  UNL1       -0.2777
     18 C         140.4602  141.8654  162.4360 C.2     1  UNL1        0.2541
     19 O         141.7465  142.4618  162.9255 O.2     1  UNL1       -0.2696
     20 H         139.0403  141.9087  160.7995 H       1  UNL1        0.1553
     21 C         142.5988  144.6203  157.2310 C.3     1  UNL1        0.1538
     22 N         141.8428  144.3978  158.5073 N.ar    1  UNL1       -0.2459
     23 C         141.2621  143.0954  158.9726 C.ar    1  UNL1        0.1115
     24 C         140.5952  143.3314  160.2953 C.ar    1  UNL1        0.0936
     25 C         140.7637  144.7797  160.6475 C.ar    1  UNL1        0.1686
     26 N         141.5348  145.4388  159.5425 N.ar    1  UNL1       -0.1632
     27 C         140.2512  145.4510  161.8871 C.2     1  UNL1        0.2635
     28 N         141.1947  145.7830  163.0049 N.am    1  UNL1       -0.3240
     29 O         138.7952  145.7903  162.0090 O.2     1  UNL1       -0.2686
     30 H         142.1504  145.5603  162.9250 H       1  UNL1        0.1453
     31 H         140.8584  146.2236  163.8186 H       1  UNL1        0.1453
@<TRIPOS>BOND
     1    21    22    1
     2    22    23   ar
     3    23    24   ar
     4    24    17    1
     5    17    18   am
     6    18    19    2
     7    18     1    1
     8     1     2   ar
     9     2     3   ar
    10     3     4   ar
    11     4     5   ar
    12     5     6   ar
    13     6     7   ar
    14     7    10    1
    15    10    11    1
    16    11    12    1
    17    12    13    1
    18    13    14    1
    19    14    15    1
    20     7     8   ar
    21     8     9   ar
    22    24    25   ar
    23    25    27    1
    24    27    28   am
    25    27    29    2
    26    25    26   ar
    27    26    22   ar
    28     9     1   ar
    29     9     4   ar
    30    15    10    1
    31    17    20    1
    32    13    16    1
    33    28    30    1
    34    28    31    1
@<TRIPOS>MOLECULE
*****
 31 34 0 0 0
SMALL
GASTEIGER

@<TRIPOS>ATOM
      1 C         140.5357  144.0794  160.8307 C.ar    1  UNL1        0.1103
      2 C         140.1547  145.5276  160.7440 C.ar    1  UNL1        0.1281
      3 N         139.1135  145.7964  161.7898 N.ar    1  UNL1       -0.1619
      4 N         138.8510  144.5143  162.5229 N.ar    1  UNL1       -0.2104
      5 C         137.9252  144.1761  163.6535 C.ar    1  UNL1        0.1050
      6 C         137.8783  142.7767  164.1914 C.ar    1  UNL1        0.0551
      7 C         138.7572  141.7155  163.5987 C.ar    1  UNL1        0.1350
      8 N         139.6831  142.0537  162.4681 N.ar    1  UNL1       -0.2116
      9 C         139.7299  143.4531  161.9301 C.ar    1  UNL1        0.1710
     10 N         138.7103  140.3161  164.1367 N.pl3   1  UNL1       -0.2903
     11 C         138.3158  140.0739  165.5635 C.3     1  UNL1        0.1093
     12 C         138.2688  138.6744  166.1015 C.3     1  UNL1        0.0904
     13 N         138.6165  137.5172  165.2127 N.3     1  UNL1       -0.2946
     14 C         139.0111  137.7594  163.7859 C.3     1  UNL1        0.0904
     15 C         139.0580  139.1588  163.2479 C.3     1  UNL1        0.1093
     16 H         137.8004  136.9057  165.1927 H       1  UNL1        0.1233
     17 N         141.4148  141.9093  159.7044 N.am    1  UNL1       -0.2777
     18 C         141.5451  143.3801  159.9693 C.2     1  UNL1        0.2541
     19 O         142.6849  144.1514  159.3728 O.2     1  UNL1       -0.2696
     20 H         140.6667  141.4031  160.0960 H       1  UNL1        0.1553
     21 C         144.0813  140.1814  155.4873 C.3     1  UNL1        0.1538
     22 N         143.6499  140.4158  156.9047 N.ar    1  UNL1       -0.2459
     23 C         142.4873  141.2551  157.3451 C.ar    1  UNL1        0.1115
     24 C         142.4242  141.2101  158.8430 C.ar    1  UNL1        0.0936
     25 C         143.5479  140.3430  159.3285 C.ar    1  UNL1        0.1686
     26 N         144.3054  139.8521  158.1305 N.ar    1  UNL1       -0.1632
     27 C         143.8593  140.0230  160.7605 C.2     1  UNL1        0.2635
     28 N         144.4755  138.7027  161.1170 N.am    1  UNL1       -0.3240
     29 O         143.5545  141.0233  161.8359 O.2     1  UNL1       -0.2686
     30 H         144.6756  138.0462  160.4111 H       1  UNL1        0.1453
     31 H         144.6800  138.4927  162.0568 H       1  UNL1        0.1453
@<TRIPOS>BOND
     1    21    22    1
     2    22    23   ar
     3    23    24   ar
     4    24    17    1
     5    17    18   am
     6    18    19    2
     7    18     1    1
     8     1     2   ar
     9     2     3   ar
    10     3     4   ar
    11     4     5   ar
    12     5     6   ar
    13     6     7   ar
    14     7    10    1
    15    10    11    1
    16    11    12    1
    17    12    13    1
    18    13    14    1
    19    14    15    1
    20     7     8   ar
    21     8     9   ar
    22    24    25   ar
    23    25    27    1
    24    27    28   am
    25    27    29    2
    26    25    26   ar
    27    26    22   ar
    28     9     1   ar
    29     9     4   ar
    30    15    10    1
    31    17    20    1
    32    13    16    1
    33    28    30    1
    34    28    31    1
@<TRIPOS>MOLECULE
*****
 31 34 0 0 0
SMALL
GASTEIGER

@<TRIPOS>ATOM
      1 C         138.6183  140.3353  161.7964 C.ar    1  UNL1        0.1103
      2 C         138.2054  139.1284  161.0070 C.ar    1  UNL1        0.1281
      3 N         138.1217  137.9646  161.9496 N.ar    1  UNL1       -0.1619
      4 N         138.4829  138.4521  163.3214 N.ar    1  UNL1       -0.2104
      5 C         138.5719  137.7511  164.6445 C.ar    1  UNL1        0.1050
      6 C         138.9679  138.5154  165.8730 C.ar    1  UNL1        0.0551
      7 C         139.2748  139.9806  165.7783 C.ar    1  UNL1        0.1350
      8 N         139.1857  140.6815  164.4552 N.ar    1  UNL1       -0.2116
      9 C         138.7898  139.9173  163.2267 C.ar    1  UNL1        0.1710
     10 N         139.6707  140.7448  167.0068 N.pl3   1  UNL1       -0.2903
     11 C         140.2636  142.1167  166.8781 C.3     1  UNL1        0.1093
     12 C         140.6596  142.8809  168.1066 C.3     1  UNL1        0.0904
     13 N         140.4626  142.2733  169.4638 N.3     1  UNL1       -0.2946
     14 C         139.8697  140.9014  169.5925 C.3     1  UNL1        0.0904
     15 C         139.4738  140.1372  168.3640 C.3     1  UNL1        0.1093
     16 H         139.8557  142.9064  169.9846 H       1  UNL1        0.1233
     17 N         140.0887  142.0546  160.5188 N.am    1  UNL1       -0.2777
     18 C         138.8236  141.7175  161.2511 C.2     1  UNL1        0.2541
     19 O         137.7641  142.7626  161.4380 O.2     1  UNL1       -0.2696
     20 H         140.7842  141.3687  160.3961 H       1  UNL1        0.1553
     21 C         140.0138  146.2522  157.3164 C.3     1  UNL1        0.1538
     22 N         140.2596  145.3662  158.5016 N.ar    1  UNL1       -0.2459
     23 C         139.8477  143.9295  158.6289 C.ar    1  UNL1        0.1115
     24 C         140.2940  143.4368  159.9736 C.ar    1  UNL1        0.0936
     25 C         140.9818  144.5690  160.6772 C.ar    1  UNL1        0.1686
     26 N         140.9605  145.7614  159.7675 N.ar    1  UNL1       -0.1632
     27 C         141.5850  144.5177  162.0497 C.2     1  UNL1        0.2635
     28 N         142.9327  145.1269  162.2998 N.am    1  UNL1       -0.3240
     29 O         140.8404  143.8572  163.1719 O.2     1  UNL1       -0.2686
     30 H         143.4213  145.5604  161.5633 H       1  UNL1        0.1453
     31 H         143.3285  145.0933  163.2006 H       1  UNL1        0.1453
@<TRIPOS>BOND
     1    21    22    1
     2    22    23   ar
     3    23    24   ar
     4    24    17    1
     5    17    18   am
     6    18    19    2
     7    18     1    1
     8     1     2   ar
     9     2     3   ar
    10     3     4   ar
    11     4     5   ar
    12     5     6   ar
    13     6     7   ar
    14     7    10    1
    15    10    11    1
    16    11    12    1
    17    12    13    1
    18    13    14    1
    19    14    15    1
    20     7     8   ar
    21     8     9   ar
    22    24    25   ar
    23    25    27    1
    24    27    28   am
    25    27    29    2
    26    25    26   ar
    27    26    22   ar
    28     9     1   ar
    29     9     4   ar
    30    15    10    1
    31    17    20    1
    32    13    16    1
    33    28    30    1
    34    28    31    1
@<TRIPOS>MOLECULE
*****
 31 34 0 0 0
SMALL
GASTEIGER

@<TRIPOS>ATOM
      1 C         143.1996  143.4222  164.4309 C.ar    1  UNL1        0.1103
      2 C         143.8937  144.6944  164.0439 C.ar    1  UNL1        0.1281
      3 N         143.5579  144.9884  162.6119 N.ar    1  UNL1       -0.1619
      4 N         142.6563  143.8980  162.1138 N.ar    1  UNL1       -0.2104
      5 C         142.0084  143.6614  160.7818 C.ar    1  UNL1        0.1050
      6 C         141.1390  142.4569  160.5741 C.ar    1  UNL1        0.0551
      7 C         140.9175  141.4889  161.6984 C.ar    1  UNL1        0.1350
      8 N         141.5655  141.7254  163.0303 N.ar    1  UNL1       -0.2116
      9 C         142.4348  142.9300  163.2381 C.ar    1  UNL1        0.1710
     10 N         140.0481  140.2843  161.4906 N.pl3   1  UNL1       -0.2903
     11 C         138.8939  140.0243  162.4127 C.3     1  UNL1        0.1093
     12 C         138.0245  138.8197  162.2049 C.3     1  UNL1        0.0904
     13 N         138.3093  137.8751  161.0750 N.3     1  UNL1       -0.2946
     14 C         139.4635  138.1352  160.1529 C.3     1  UNL1        0.0904
     15 C         140.3329  139.3397  160.3607 C.3     1  UNL1        0.1093
     16 H         137.4701  137.8474  160.4958 H       1  UNL1        0.1233
     17 N         142.2904  141.6657  166.1157 N.am    1  UNL1       -0.2777
     18 C         143.2597  142.7587  165.7748 C.2     1  UNL1        0.2541
     19 O         144.2889  143.1880  166.7779 O.2     1  UNL1       -0.2696
     20 H         141.6149  141.3838  165.4573 H       1  UNL1        0.1553
     21 C         141.8852  140.7915  171.3072 C.3     1  UNL1        0.1538
     22 N         142.1643  140.6003  169.8458 N.ar    1  UNL1       -0.2459
     23 C         141.9348  141.6142  168.7644 C.ar    1  UNL1        0.1115
     24 C         142.3505  141.0021  167.4596 C.ar    1  UNL1        0.0936
     25 C         142.8368  139.6100  167.7346 C.ar    1  UNL1        0.1686
     26 N         142.7217  139.3617  169.2094 N.ar    1  UNL1       -0.1632
     27 C         143.3484  138.6371  166.7139 C.2     1  UNL1        0.2635
     28 N         144.2804  137.5370  167.1275 N.am    1  UNL1       -0.3240
     29 O         142.9279  138.7643  165.2797 O.2     1  UNL1       -0.2686
     30 H         144.5563  137.4536  168.0689 H       1  UNL1        0.1453
     31 H         144.6161  136.8985  166.4577 H       1  UNL1        0.1453
@<TRIPOS>BOND
     1    21    22    1
     2    22    23   ar
     3    23    24   ar
     4    24    17    1
     5    17    18   am
     6    18    19    2
     7    18     1    1
     8     1     2   ar
     9     2     3   ar
    10     3     4   ar
    11     4     5   ar
    12     5     6   ar
    13     6     7   ar
    14     7    10    1
    15    10    11    1
    16    11    12    1
    17    12    13    1
    18    13    14    1
    19    14    15    1
    20     7     8   ar
    21     8     9   ar
    22    24    25   ar
    23    25    27    1
    24    27    28   am
    25    27    29    2
    26    25    26   ar
    27    26    22   ar
    28     9     1   ar
    29     9     4   ar
    30    15    10    1
    31    17    20    1
    32    13    16    1
    33    28    30    1
    34    28    31    1
@<TRIPOS>MOLECULE
*****
 31 34 0 0 0
SMALL
GASTEIGER

@<TRIPOS>ATOM
      1 C         140.1875  139.5726  163.4152 C.ar    1  UNL1        0.1103
      2 C         139.3799  138.5064  162.7363 C.ar    1  UNL1        0.1281
      3 N         138.4715  137.8911  163.7591 N.ar    1  UNL1       -0.1619
      4 N         138.7176  138.5770  165.0702 N.ar    1  UNL1       -0.2104
      5 C         138.1131  138.3895  166.4301 C.ar    1  UNL1        0.1050
      6 C         138.5691  139.2413  167.5774 C.ar    1  UNL1        0.0551
      7 C         139.6296  140.2805  167.3649 C.ar    1  UNL1        0.1350
      8 N         140.2342  140.4680  166.0050 N.ar    1  UNL1       -0.2116
      9 C         139.7782  139.6162  164.8577 C.ar    1  UNL1        0.1710
     10 N         140.0856  141.1323  168.5124 N.pl3   1  UNL1       -0.2903
     11 C         140.3354  142.5969  168.3063 C.3     1  UNL1        0.1093
     12 C         140.7914  143.4487  169.4538 C.3     1  UNL1        0.0904
     13 N         140.9976  142.8358  170.8073 N.3     1  UNL1       -0.2946
     14 C         140.7478  141.3711  171.0133 C.3     1  UNL1        0.0904
     15 C         140.2918  140.5194  169.8658 C.3     1  UNL1        0.1093
     16 H         140.3834  143.3328  171.4523 H       1  UNL1        0.1233
     17 N         142.2401  139.8372  161.8446 N.am    1  UNL1       -0.2777
     18 C         141.2226  140.4424  162.7658 C.2     1  UNL1        0.2541
     19 O         141.2404  141.9175  163.0375 O.2     1  UNL1       -0.2696
     20 H         142.2285  138.8691  161.6663 H       1  UNL1        0.1553
     21 C         144.8094  142.7989  158.3080 C.3     1  UNL1        0.1538
     22 N         144.4563  142.0684  159.5696 N.ar    1  UNL1       -0.2459
     23 C         143.2171  141.2552  159.8002 C.ar    1  UNL1        0.1115
     24 C         143.2753  140.7071  161.1952 C.ar    1  UNL1        0.0936
     25 C         144.5504  141.1815  161.8269 C.ar    1  UNL1        0.1686
     26 N         145.2803  142.0229  160.8222 N.ar    1  UNL1       -0.1632
     27 C         145.0142  140.8694  163.2188 C.2     1  UNL1        0.2635
     28 N         146.0643  141.7212  163.8681 N.am    1  UNL1       -0.3240
     29 O         144.4278  139.7055  163.9614 O.2     1  UNL1       -0.2686
     30 H         146.4492  142.4851  163.3807 H       1  UNL1        0.1453
     31 H         146.3687  141.5164  164.7817 H       1  UNL1        0.1453
@<TRIPOS>BOND
     1    21    22    1
     2    22    23   ar
     3    23    24   ar
     4    24    17    1
     5    17    18   am
     6    18    19    2
     7    18     1    1
     8     1     2   ar
     9     2     3   ar
    10     3     4   ar
    11     4     5   ar
    12     5     6   ar
    13     6     7   ar
    14     7    10    1
    15    10    11    1
    16    11    12    1
    17    12    13    1
    18    13    14    1
    19    14    15    1
    20     7     8   ar
    21     8     9   ar
    22    24    25   ar
    23    25    27    1
    24    27    28   am
    25    27    29    2
    26    25    26   ar
    27    26    22   ar
    28     9     1   ar
    29     9     4   ar
    30    15    10    1
    31    17    20    1
    32    13    16    1
    33    28    30    1
    34    28    31    1
