@<TRIPOS>MOLECULE
*****
 34 37 0 0 0
SMALL
GASTEIGER

@<TRIPOS>ATOM
      1 C         142.4600  140.3403  168.2623 C.3     1  UNL1        0.1106
      2 C         142.6598  139.5517  167.0021 C.3     1  UNL1        0.0400
      3 C         143.2215  140.2183  165.7813 C.3     1  UNL1        0.0743
      4 N         143.5834  141.6734  165.8208 N.3     1  UNL1       -0.2665
      5 C         143.3837  142.4620  167.0811 C.3     1  UNL1        0.1098
      6 C         142.8220  141.7955  168.3018 C.3     1  UNL1        0.1948
      7 F         142.6222  142.5841  169.5620 F       1  UNL1       -0.2340
      8 C         142.7590  138.7558  170.2994 C.3     1  UNL1        0.1149
      9 N         141.8983  139.6737  169.4830 N.am    1  UNL1       -0.2763
     10 C         140.4758  139.9252  169.8874 C.2     1  UNL1        0.2301
     11 O         139.9141  139.2587  171.1081 O.2     1  UNL1       -0.2745
     12 C         139.6152  140.8432  169.0710 C.3     1  UNL1        0.1116
     13 C         139.2908  140.4987  167.6475 C.ar    1  UNL1       -0.0130
     14 C         138.6027  139.2050  167.3270 C.ar    1  UNL1       -0.0022
     15 C         138.2784  138.8605  165.9036 C.ar    1  UNL1        0.0190
     16 C         138.6422  139.8098  164.8007 C.ar    1  UNL1        0.0862
     17 C         139.3304  141.1035  165.1211 C.ar    1  UNL1        0.0190
     18 C         139.6547  141.4479  166.5446 C.ar    1  UNL1       -0.0022
     19 N         138.3179  139.4653  163.3772 N.ar    1  UNL1       -0.1886
     20 C         137.7647  140.4046  162.3468 C.ar    1  UNL1        0.2258
     21 N         137.5947  139.6409  161.0670 N.ar    1  UNL1       -0.1045
     22 N         138.0429  138.2296  161.3065 N.ar    1  UNL1       -0.0222
     23 N         138.4899  138.1211  162.7342 N.ar    1  UNL1       -0.0385
     24 C         144.1452  142.3399  164.6001 C.3     1  UNL1        0.0992
     25 C         143.2437  143.1196  163.6895 C.ar    1  UNL1       -0.0062
     26 C         142.0565  143.8448  164.2504 C.ar    1  UNL1       -0.0030
     27 C         141.1550  144.6246  163.3397 C.ar    1  UNL1        0.0036
     28 C         141.4407  144.6792  161.8682 C.ar    1  UNL1        0.0714
     29 C         142.6279  143.9540  161.3073 C.ar    1  UNL1        0.0036
     30 C         143.5294  143.1742  162.2179 C.ar    1  UNL1       -0.0030
     31 C         140.5392  145.4590  160.9576 C.3     1  UNL1        0.4186
     32 F         139.6377  146.2387  160.0470 F       1  UNL1       -0.1659
     33 F         141.5353  145.3121  159.8458 F       1  UNL1       -0.1659
     34 F         139.5431  145.6058  162.0694 F       1  UNL1       -0.1659
@<TRIPOS>BOND
     1     8     9    1
     2     9    10   am
     3    10    11    2
     4    10    12    1
     5    12    13    1
     6    13    14   ar
     7    14    15   ar
     8    15    16   ar
     9    16    19    1
    10    19    20   ar
    11    20    21   ar
    12    21    22   ar
    13    22    23   ar
    14    16    17   ar
    15    17    18   ar
    16     1     9    1
    17     1     2    1
    18     2     3    1
    19     3     4    1
    20     4    24    1
    21    24    25    1
    22    25    26   ar
    23    26    27   ar
    24    27    28   ar
    25    28    31    1
    26    31    32    1
    27    31    33    1
    28    31    34    1
    29    28    29   ar
    30    29    30   ar
    31     4     5    1
    32     5     6    1
    33     6     7    1
    34    18    13   ar
    35     6     1    1
    36    23    19   ar
    37    30    25   ar
@<TRIPOS>MOLECULE
*****
 34 37 0 0 0
SMALL
GASTEIGER

@<TRIPOS>ATOM
      1 C         141.6606  140.9433  160.9795 C.3     1  UNL1        0.1106
      2 C         140.4919  141.3931  161.8051 C.3     1  UNL1        0.0400
      3 C         140.7198  142.0216  163.1480 C.3     1  UNL1        0.0743
      4 N         142.1164  142.2002  163.6651 N.3     1  UNL1       -0.2665
      5 C         143.2852  141.7504  162.8395 C.3     1  UNL1        0.1098
      6 C         143.0573  141.1219  161.4967 C.3     1  UNL1        0.1948
      7 F         144.2261  140.6721  160.6710 F       1  UNL1       -0.2340
      8 C         141.0428  141.1677  158.4660 C.3     1  UNL1        0.1149
      9 N         141.4327  140.3149  159.6367 N.am    1  UNL1       -0.2763
     10 C         141.5949  138.8336  159.4646 C.2     1  UNL1        0.2301
     11 O         141.3670  138.2051  158.1218 O.2     1  UNL1       -0.2745
     12 C         141.9848  137.9808  160.6354 C.3     1  UNL1        0.1116
     13 C         141.1490  137.9893  161.8809 C.ar    1  UNL1       -0.0130
     14 C         139.6554  137.8930  161.7825 C.ar    1  UNL1       -0.0022
     15 C         138.8196  137.9015  163.0281 C.ar    1  UNL1        0.0190
     16 C         139.4775  138.0063  164.3720 C.ar    1  UNL1        0.0862
     17 C         140.9711  138.1026  164.4704 C.ar    1  UNL1        0.0190
     18 C         141.8069  138.0941  163.2249 C.ar    1  UNL1       -0.0022
     19 N         138.6417  138.0148  165.6176 N.ar    1  UNL1       -0.1886
     20 C         138.5124  139.1539  166.5849 C.ar    1  UNL1        0.2258
     21 N         137.5793  138.7289  167.6796 N.ar    1  UNL1       -0.1045
     22 N         137.1318  137.3269  167.3890 N.ar    1  UNL1       -0.0222
     23 N         137.7885  136.8856  166.1146 N.ar    1  UNL1       -0.0385
     24 C         142.3443  142.8286  165.0079 C.3     1  UNL1        0.0992
     25 C         141.8432  142.1502  166.2483 C.ar    1  UNL1       -0.0062
     26 C         140.7670  142.7929  167.0721 C.ar    1  UNL1       -0.0030
     27 C         140.2659  142.1145  168.3125 C.ar    1  UNL1        0.0036
     28 C         140.8410  140.7932  168.7291 C.ar    1  UNL1        0.0714
     29 C         141.9172  140.1504  167.9053 C.ar    1  UNL1        0.0036
     30 C         142.4183  140.8289  166.6649 C.ar    1  UNL1       -0.0030
     31 C         140.3399  140.1147  169.9695 C.3     1  UNL1        0.4186
     32 F         139.8388  139.4363  171.2098 F       1  UNL1       -0.1659
     33 F         139.1734  141.0567  170.0134 F       1  UNL1       -0.1659
     34 F         141.5064  139.1728  169.9255 F       1  UNL1       -0.1659
@<TRIPOS>BOND
     1     8     9    1
     2     9    10   am
     3    10    11    2
     4    10    12    1
     5    12    13    1
     6    13    14   ar
     7    14    15   ar
     8    15    16   ar
     9    16    19    1
    10    19    20   ar
    11    20    21   ar
    12    21    22   ar
    13    22    23   ar
    14    16    17   ar
    15    17    18   ar
    16     1     9    1
    17     1     2    1
    18     2     3    1
    19     3     4    1
    20     4    24    1
    21    24    25    1
    22    25    26   ar
    23    26    27   ar
    24    27    28   ar
    25    28    31    1
    26    31    32    1
    27    31    33    1
    28    31    34    1
    29    28    29   ar
    30    29    30   ar
    31     4     5    1
    32     5     6    1
    33     6     7    1
    34    18    13   ar
    35     6     1    1
    36    23    19   ar
    37    30    25   ar
@<TRIPOS>MOLECULE
*****
 34 37 0 0 0
SMALL
GASTEIGER

@<TRIPOS>ATOM
      1 C         141.3553  142.6233  167.9546 C.3     1  UNL1        0.1106
      2 C         140.4255  142.8775  166.8054 C.3     1  UNL1        0.0400
      3 C         140.9601  142.9266  165.4048 C.3     1  UNL1        0.0743
      4 N         142.4246  142.7215  165.1534 N.3     1  UNL1       -0.2665
      5 C         143.3545  142.4673  166.3026 C.3     1  UNL1        0.1098
      6 C         142.8199  142.4182  167.7032 C.3     1  UNL1        0.1948
      7 F         143.7497  142.1640  168.8525 F       1  UNL1       -0.2340
      8 C         140.4709  143.8459  170.0695 C.3     1  UNL1        0.1149
      9 N         140.8207  142.5742  169.3552 N.am    1  UNL1       -0.2763
     10 C         140.6359  141.2532  170.0416 C.2     1  UNL1        0.2301
     11 O         140.1013  141.2041  171.4422 O.2     1  UNL1       -0.2745
     12 C         140.9858  139.9815  169.3273 C.3     1  UNL1        0.1116
     13 C         140.4400  139.7173  167.9553 C.ar    1  UNL1       -0.0130
     14 C         138.9592  139.7483  167.7184 C.ar    1  UNL1       -0.0022
     15 C         138.4135  139.4841  166.3464 C.ar    1  UNL1        0.0190
     16 C         139.3486  139.1890  165.2113 C.ar    1  UNL1        0.0862
     17 C         140.8294  139.1580  165.4482 C.ar    1  UNL1        0.0190
     18 C         141.3751  139.4222  166.8202 C.ar    1  UNL1       -0.0022
     19 N         138.8028  138.9248  163.8393 N.ar    1  UNL1       -0.1886
     20 C         138.9456  137.6485  163.0643 C.ar    1  UNL1        0.2258
     21 N         138.2495  137.8254  161.7474 N.ar    1  UNL1       -0.1045
     22 N         137.6764  139.2111  161.7086 N.ar    1  UNL1       -0.0222
     23 N         138.0184  139.8905  163.0014 N.ar    1  UNL1       -0.0385
     24 C         142.9592  142.7707  163.7527 C.3     1  UNL1        0.0992
     25 C         142.9873  141.5257  162.9166 C.ar    1  UNL1       -0.0062
     26 C         144.2782  140.7905  162.7092 C.ar    1  UNL1       -0.0030
     27 C         144.3064  139.5455  161.8730 C.ar    1  UNL1        0.0036
     28 C         143.0435  139.0356  161.2442 C.ar    1  UNL1        0.0714
     29 C         141.7526  139.7709  161.4517 C.ar    1  UNL1        0.0036
     30 C         141.7245  141.0158  162.2878 C.ar    1  UNL1       -0.0030
     31 C         143.0716  137.7907  160.4081 C.3     1  UNL1        0.4186
     32 F         143.0997  136.5457  159.5719 F       1  UNL1       -0.1659
     33 F         144.2757  137.3108  161.1630 F       1  UNL1       -0.1659
     34 F         141.8676  138.2705  159.6532 F       1  UNL1       -0.1659
@<TRIPOS>BOND
     1     8     9    1
     2     9    10   am
     3    10    11    2
     4    10    12    1
     5    12    13    1
     6    13    14   ar
     7    14    15   ar
     8    15    16   ar
     9    16    19    1
    10    19    20   ar
    11    20    21   ar
    12    21    22   ar
    13    22    23   ar
    14    16    17   ar
    15    17    18   ar
    16     1     9    1
    17     1     2    1
    18     2     3    1
    19     3     4    1
    20     4    24    1
    21    24    25    1
    22    25    26   ar
    23    26    27   ar
    24    27    28   ar
    25    28    31    1
    26    31    32    1
    27    31    33    1
    28    31    34    1
    29    28    29   ar
    30    29    30   ar
    31     4     5    1
    32     5     6    1
    33     6     7    1
    34    18    13   ar
    35     6     1    1
    36    23    19   ar
    37    30    25   ar
@<TRIPOS>MOLECULE
*****
 34 37 0 0 0
SMALL
GASTEIGER

@<TRIPOS>ATOM
      1 C         142.0125  139.8995  160.8961 C.3     1  UNL1        0.1106
      2 C         142.0952  141.3680  160.6020 C.3     1  UNL1        0.0400
      3 C         142.4862  142.3290  161.6854 C.3     1  UNL1        0.0743
      4 N         142.7946  141.8214  163.0627 N.3     1  UNL1       -0.2665
      5 C         142.7120  140.3528  163.3568 C.3     1  UNL1        0.1098
      6 C         142.3209  139.3918  162.2735 C.3     1  UNL1        0.1948
      7 F         142.2383  137.9233  162.5675 F       1  UNL1       -0.2340
      8 C         142.6716  138.1220  159.1195 C.3     1  UNL1        0.1149
      9 N         141.6215  138.9385  159.8127 N.am    1  UNL1       -0.2763
     10 C         140.1803  138.7941  159.4226 C.2     1  UNL1        0.2301
     11 O         139.7892  137.8331  158.3393 O.2     1  UNL1       -0.2745
     12 C         139.1302  139.6106  160.1158 C.3     1  UNL1        0.1116
     13 C         138.9440  139.4895  161.5993 C.ar    1  UNL1       -0.0130
     14 C         138.9643  138.1381  162.2499 C.ar    1  UNL1       -0.0022
     15 C         138.7780  138.0170  163.7333 C.ar    1  UNL1        0.0190
     16 C         138.5716  139.2474  164.5662 C.ar    1  UNL1        0.0862
     17 C         138.5513  140.5987  163.9156 C.ar    1  UNL1        0.0190
     18 C         138.7375  140.7198  162.4322 C.ar    1  UNL1       -0.0022
     19 N         138.3853  139.1262  166.0497 N.ar    1  UNL1       -0.1886
     20 C         139.2796  139.7131  167.1014 C.ar    1  UNL1        0.2258
     21 N         138.7192  139.3466  168.4436 N.ar    1  UNL1       -0.1045
     22 N         137.4785  138.5332  168.2215 N.ar    1  UNL1       -0.0222
     23 N         137.2722  138.3970  166.7420 N.ar    1  UNL1       -0.0385
     24 C         143.1857  142.7824  164.1461 C.3     1  UNL1        0.0992
     25 C         142.4985  142.7307  165.4784 C.ar    1  UNL1       -0.0062
     26 C         143.2419  142.2448  166.6872 C.ar    1  UNL1       -0.0030
     27 C         142.5547  142.1931  168.0197 C.ar    1  UNL1        0.0036
     28 C         141.1243  142.6273  168.1432 C.ar    1  UNL1        0.0714
     29 C         140.3810  143.1133  166.9342 C.ar    1  UNL1        0.0036
     30 C         141.0681  143.1649  165.6019 C.ar    1  UNL1       -0.0030
     31 C         140.4372  142.5756  169.4755 C.3     1  UNL1        0.4186
     32 F         139.7501  142.5239  170.8078 F       1  UNL1       -0.1659
     33 F         139.8955  143.9560  169.2497 F       1  UNL1       -0.1659
     34 F         140.9789  141.1952  169.7013 F       1  UNL1       -0.1659
@<TRIPOS>BOND
     1     8     9    1
     2     9    10   am
     3    10    11    2
     4    10    12    1
     5    12    13    1
     6    13    14   ar
     7    14    15   ar
     8    15    16   ar
     9    16    19    1
    10    19    20   ar
    11    20    21   ar
    12    21    22   ar
    13    22    23   ar
    14    16    17   ar
    15    17    18   ar
    16     1     9    1
    17     1     2    1
    18     2     3    1
    19     3     4    1
    20     4    24    1
    21    24    25    1
    22    25    26   ar
    23    26    27   ar
    24    27    28   ar
    25    28    31    1
    26    31    32    1
    27    31    33    1
    28    31    34    1
    29    28    29   ar
    30    29    30   ar
    31     4     5    1
    32     5     6    1
    33     6     7    1
    34    18    13   ar
    35     6     1    1
    36    23    19   ar
    37    30    25   ar
@<TRIPOS>MOLECULE
*****
 34 37 0 0 0
SMALL
GASTEIGER

@<TRIPOS>ATOM
      1 C         141.9092  144.0648  161.5169 C.3     1  UNL1        0.1106
      2 C         142.9717  144.6783  162.3799 C.3     1  UNL1        0.0400
      3 C         143.7696  143.8170  163.3134 C.3     1  UNL1        0.0743
      4 N         143.5051  142.3423  163.3840 N.3     1  UNL1       -0.2665
      5 C         142.4426  141.7287  162.5209 C.3     1  UNL1        0.1098
      6 C         141.6447  142.5900  161.5874 C.3     1  UNL1        0.1948
      7 F         140.5822  141.9765  160.7244 F       1  UNL1       -0.2340
      8 C         141.3838  144.8866  159.1089 C.3     1  UNL1        0.1149
      9 N         141.1113  144.9261  160.5834 N.am    1  UNL1       -0.2763
     10 C         140.0408  145.8270  161.1244 C.2     1  UNL1        0.2301
     11 O         139.2429  146.6883  160.1908 O.2     1  UNL1       -0.2745
     12 C         139.7684  145.8666  162.5989 C.3     1  UNL1        0.1116
     13 C         139.5259  144.5917  163.3513 C.ar    1  UNL1       -0.0130
     14 C         140.2761  144.3156  164.6204 C.ar    1  UNL1       -0.0022
     15 C         140.0336  143.0408  165.3728 C.ar    1  UNL1        0.0190
     16 C         139.0408  142.0421  164.8559 C.ar    1  UNL1        0.0862
     17 C         138.2906  142.3183  163.5867 C.ar    1  UNL1        0.0190
     18 C         138.5331  143.5931  162.8344 C.ar    1  UNL1       -0.0022
     19 N         138.7983  140.7673  165.6083 N.ar    1  UNL1       -0.1886
     20 C         138.0586  139.5676  165.0949 C.ar    1  UNL1        0.2258
     21 N         138.0561  138.5271  166.1754 N.ar    1  UNL1       -0.1045
     22 N         138.7942  139.0839  167.3566 N.ar    1  UNL1       -0.0222
     23 N         139.2530  140.4683  167.0061 N.ar    1  UNL1       -0.0385
     24 C         144.3030  141.4810  164.3175 C.3     1  UNL1        0.0992
     25 C         143.6976  141.0118  165.6072 C.ar    1  UNL1       -0.0062
     26 C         143.2975  142.0086  166.6542 C.ar    1  UNL1       -0.0030
     27 C         142.6921  141.5395  167.9440 C.ar    1  UNL1        0.0036
     28 C         142.4868  140.0735  168.1867 C.ar    1  UNL1        0.0714
     29 C         142.8870  139.0767  167.1396 C.ar    1  UNL1        0.0036
     30 C         143.4924  139.5459  165.8499 C.ar    1  UNL1       -0.0030
     31 C         141.8815  139.6044  169.4764 C.3     1  UNL1        0.4186
     32 F         141.2761  139.1352  170.7661 F       1  UNL1       -0.1659
     33 F         142.7720  138.3976  169.4554 F       1  UNL1       -0.1659
     34 F         140.9909  140.8112  169.4973 F       1  UNL1       -0.1659
@<TRIPOS>BOND
     1     8     9    1
     2     9    10   am
     3    10    11    2
     4    10    12    1
     5    12    13    1
     6    13    14   ar
     7    14    15   ar
     8    15    16   ar
     9    16    19    1
    10    19    20   ar
    11    20    21   ar
    12    21    22   ar
    13    22    23   ar
    14    16    17   ar
    15    17    18   ar
    16     1     9    1
    17     1     2    1
    18     2     3    1
    19     3     4    1
    20     4    24    1
    21    24    25    1
    22    25    26   ar
    23    26    27   ar
    24    27    28   ar
    25    28    31    1
    26    31    32    1
    27    31    33    1
    28    31    34    1
    29    28    29   ar
    30    29    30   ar
    31     4     5    1
    32     5     6    1
    33     6     7    1
    34    18    13   ar
    35     6     1    1
    36    23    19   ar
    37    30    25   ar
@<TRIPOS>MOLECULE
*****
 34 37 0 0 0
SMALL
GASTEIGER

@<TRIPOS>ATOM
      1 C         140.3591  139.2602  160.0823 C.3     1  UNL1        0.1106
      2 C         139.4009  138.2942  160.7136 C.3     1  UNL1        0.0400
      3 C         138.5727  138.7196  161.8896 C.3     1  UNL1        0.0743
      4 N         138.7027  140.1111  162.4344 N.3     1  UNL1       -0.2665
      5 C         139.6610  141.0772  161.8032 C.3     1  UNL1        0.1098
      6 C         140.4892  140.6517  160.6271 C.3     1  UNL1        0.1948
      7 F         141.4474  141.6177  159.9958 F       1  UNL1       -0.2340
      8 C         140.7804  139.2337  157.5188 C.3     1  UNL1        0.1149
      9 N         141.1873  138.8347  158.9063 N.am    1  UNL1       -0.2763
     10 C         142.4224  138.0102  159.1178 C.2     1  UNL1        0.2301
     11 O         143.2506  137.5847  157.9418 O.2     1  UNL1       -0.2745
     12 C         142.8293  137.6112  160.5053 C.3     1  UNL1        0.1116
     13 C         143.1316  138.6639  161.5302 C.ar    1  UNL1       -0.0130
     14 C         142.5536  138.5551  162.9101 C.ar    1  UNL1       -0.0022
     15 C         142.8559  139.6078  163.9350 C.ar    1  UNL1        0.0190
     16 C         143.7361  140.7694  163.5799 C.ar    1  UNL1        0.0862
     17 C         144.3140  140.8782  162.2001 C.ar    1  UNL1        0.0190
     18 C         144.0117  139.8255  161.1752 C.ar    1  UNL1       -0.0022
     19 N         144.0383  141.8222  164.6049 N.ar    1  UNL1       -0.1886
     20 C         143.3996  141.9459  165.9565 C.ar    1  UNL1        0.2258
     21 N         143.9988  143.1361  166.6451 N.ar    1  UNL1       -0.1045
     22 N         145.0078  143.7481  165.7191 N.ar    1  UNL1       -0.0222
     23 N         145.0322  142.9360  164.4582 N.ar    1  UNL1       -0.0385
     24 C         137.8745  140.5366  163.6105 C.3     1  UNL1        0.0992
     25 C         138.4224  140.4047  165.0006 C.ar    1  UNL1       -0.0062
     26 C         139.4113  141.4082  165.5153 C.ar    1  UNL1       -0.0030
     27 C         139.9591  141.2763  166.9055 C.ar    1  UNL1        0.0036
     28 C         139.5181  140.1409  167.7809 C.ar    1  UNL1        0.0714
     29 C         138.5291  139.1374  167.2661 C.ar    1  UNL1        0.0036
     30 C         137.9813  139.2693  165.8760 C.ar    1  UNL1       -0.0030
     31 C         140.0659  140.0090  169.1710 C.3     1  UNL1        0.4186
     32 F         140.6137  139.8771  170.5611 F       1  UNL1       -0.1659
     33 F         138.6970  140.2532  169.7336 F       1  UNL1       -0.1659
     34 F         141.4347  139.7648  168.6083 F       1  UNL1       -0.1659
@<TRIPOS>BOND
     1     8     9    1
     2     9    10   am
     3    10    11    2
     4    10    12    1
     5    12    13    1
     6    13    14   ar
     7    14    15   ar
     8    15    16   ar
     9    16    19    1
    10    19    20   ar
    11    20    21   ar
    12    21    22   ar
    13    22    23   ar
    14    16    17   ar
    15    17    18   ar
    16     1     9    1
    17     1     2    1
    18     2     3    1
    19     3     4    1
    20     4    24    1
    21    24    25    1
    22    25    26   ar
    23    26    27   ar
    24    27    28   ar
    25    28    31    1
    26    31    32    1
    27    31    33    1
    28    31    34    1
    29    28    29   ar
    30    29    30   ar
    31     4     5    1
    32     5     6    1
    33     6     7    1
    34    18    13   ar
    35     6     1    1
    36    23    19   ar
    37    30    25   ar
@<TRIPOS>MOLECULE
*****
 34 37 0 0 0
SMALL
GASTEIGER

@<TRIPOS>ATOM
      1 C         140.1252  141.3109  160.1304 C.3     1  UNL1        0.1106
      2 C         141.4680  141.9360  160.3669 C.3     1  UNL1        0.0400
      3 C         141.6915  142.7994  161.5730 C.3     1  UNL1        0.0743
      4 N         140.5721  143.0377  162.5425 N.3     1  UNL1       -0.2665
      5 C         139.2291  142.4126  162.3060 C.3     1  UNL1        0.1098
      6 C         139.0057  141.5492  161.1000 C.3     1  UNL1        0.1948
      7 F         137.6628  140.9241  160.8635 F       1  UNL1       -0.2340
      8 C         139.1428  140.9849  157.7474 C.3     1  UNL1        0.1149
      9 N         139.9017  140.4475  158.9243 N.am    1  UNL1       -0.2763
     10 C         140.4372  139.0466  158.8952 C.2     1  UNL1        0.2301
     11 O         140.2138  138.1832  157.6892 O.2     1  UNL1       -0.2745
     12 C         141.1962  138.5092  160.0721 C.3     1  UNL1        0.1116
     13 C         140.5332  138.4199  161.4148 C.ar    1  UNL1       -0.0130
     14 C         139.1206  137.9271  161.5225 C.ar    1  UNL1       -0.0022
     15 C         138.4578  137.8378  162.8651 C.ar    1  UNL1        0.0190
     16 C         139.2075  138.2415  164.1000 C.ar    1  UNL1        0.0862
     17 C         140.6201  138.7343  163.9923 C.ar    1  UNL1        0.0190
     18 C         141.2830  138.8235  162.6497 C.ar    1  UNL1       -0.0022
     19 N         138.5446  138.1522  165.4426 N.ar    1  UNL1       -0.1886
     20 C         138.4340  139.2611  166.4467 C.ar    1  UNL1        0.2258
     21 N         137.6969  138.7327  167.6416 N.ar    1  UNL1       -0.1045
     22 N         137.3520  137.2972  167.3758 N.ar    1  UNL1       -0.0222
     23 N         137.8759  136.9385  166.0169 N.ar    1  UNL1       -0.0385
     24 C         140.7955  143.9011  163.7486 C.3     1  UNL1        0.0992
     25 C         141.3417  143.3008  165.0100 C.ar    1  UNL1       -0.0062
     26 C         140.4179  142.9711  166.1448 C.ar    1  UNL1       -0.0030
     27 C         140.9641  142.3707  167.4063 C.ar    1  UNL1        0.0036
     28 C         142.4340  142.1000  167.5329 C.ar    1  UNL1        0.0714
     29 C         143.3578  142.4297  166.3979 C.ar    1  UNL1        0.0036
     30 C         142.8116  143.0301  165.1365 C.ar    1  UNL1       -0.0030
     31 C         142.9802  141.4996  168.7943 C.3     1  UNL1        0.4186
     32 F         143.5264  140.8992  170.0557 F       1  UNL1       -0.1659
     33 F         143.1635  142.8731  169.3687 F       1  UNL1       -0.1659
     34 F         142.7970  140.1261  168.2199 F       1  UNL1       -0.1659
@<TRIPOS>BOND
     1     8     9    1
     2     9    10   am
     3    10    11    2
     4    10    12    1
     5    12    13    1
     6    13    14   ar
     7    14    15   ar
     8    15    16   ar
     9    16    19    1
    10    19    20   ar
    11    20    21   ar
    12    21    22   ar
    13    22    23   ar
    14    16    17   ar
    15    17    18   ar
    16     1     9    1
    17     1     2    1
    18     2     3    1
    19     3     4    1
    20     4    24    1
    21    24    25    1
    22    25    26   ar
    23    26    27   ar
    24    27    28   ar
    25    28    31    1
    26    31    32    1
    27    31    33    1
    28    31    34    1
    29    28    29   ar
    30    29    30   ar
    31     4     5    1
    32     5     6    1
    33     6     7    1
    34    18    13   ar
    35     6     1    1
    36    23    19   ar
    37    30    25   ar
@<TRIPOS>MOLECULE
*****
 34 37 0 0 0
SMALL
GASTEIGER

@<TRIPOS>ATOM
      1 C         141.0106  142.2389  159.3045 C.3     1  UNL1        0.1106
      2 C         141.7758  141.3706  160.2587 C.3     1  UNL1        0.0400
      3 C         141.0876  140.2344  160.9557 C.3     1  UNL1        0.0743
      4 N         139.6344  139.9667  160.6984 N.3     1  UNL1       -0.2665
      5 C         138.8692  140.8350  159.7442 C.3     1  UNL1        0.1098
      6 C         139.5573  141.9711  159.0472 C.3     1  UNL1        0.1948
      7 F         138.7922  142.8394  158.0930 F       1  UNL1       -0.2340
      8 C         142.6223  143.1006  157.4579 C.3     1  UNL1        0.1149
      9 N         141.6988  143.3750  158.6076 N.am    1  UNL1       -0.2763
     10 C         141.4634  144.7856  159.0604 C.2     1  UNL1        0.2301
     11 O         142.1515  145.9217  158.3635 O.2     1  UNL1       -0.2745
     12 C         140.5399  145.0600  160.2101 C.3     1  UNL1        0.1116
     13 C         140.8603  144.5239  161.5739 C.ar    1  UNL1       -0.0130
     14 C         139.7950  143.8437  162.3817 C.ar    1  UNL1       -0.0022
     15 C         140.1154  143.3077  163.7455 C.ar    1  UNL1        0.0190
     16 C         141.5011  143.4519  164.3015 C.ar    1  UNL1        0.0862
     17 C         142.5663  144.1321  163.4938 C.ar    1  UNL1        0.0190
     18 C         142.2459  144.6681  162.1300 C.ar    1  UNL1       -0.0022
     19 N         141.8215  142.9159  165.6654 N.ar    1  UNL1       -0.1886
     20 C         143.1674  142.4497  166.1357 C.ar    1  UNL1        0.2258
     21 N         143.0300  141.9976  167.5593 N.ar    1  UNL1       -0.1045
     22 N         141.5991  142.1844  167.9689 N.ar    1  UNL1       -0.0222
     23 N         140.8522  142.7518  166.7984 N.ar    1  UNL1       -0.0385
     24 C         138.9462  138.8305  161.3953 C.3     1  UNL1        0.0992
     25 C         138.7219  138.8854  162.8774 C.ar    1  UNL1       -0.0062
     26 C         138.2552  140.1585  163.5187 C.ar    1  UNL1       -0.0030
     27 C         138.0309  140.2134  165.0008 C.ar    1  UNL1        0.0036
     28 C         138.2732  138.9951  165.8417 C.ar    1  UNL1        0.0714
     29 C         138.7399  137.7219  165.2003 C.ar    1  UNL1        0.0036
     30 C         138.9642  137.6671  163.7182 C.ar    1  UNL1       -0.0030
     31 C         138.0488  139.0499  167.3237 C.3     1  UNL1        0.4186
     32 F         137.8245  139.1047  168.8058 F       1  UNL1       -0.1659
     33 F         137.0412  137.9444  167.2121 F       1  UNL1       -0.1659
     34 F         139.0564  140.1554  167.4354 F       1  UNL1       -0.1659
@<TRIPOS>BOND
     1     8     9    1
     2     9    10   am
     3    10    11    2
     4    10    12    1
     5    12    13    1
     6    13    14   ar
     7    14    15   ar
     8    15    16   ar
     9    16    19    1
    10    19    20   ar
    11    20    21   ar
    12    21    22   ar
    13    22    23   ar
    14    16    17   ar
    15    17    18   ar
    16     1     9    1
    17     1     2    1
    18     2     3    1
    19     3     4    1
    20     4    24    1
    21    24    25    1
    22    25    26   ar
    23    26    27   ar
    24    27    28   ar
    25    28    31    1
    26    31    32    1
    27    31    33    1
    28    31    34    1
    29    28    29   ar
    30    29    30   ar
    31     4     5    1
    32     5     6    1
    33     6     7    1
    34    18    13   ar
    35     6     1    1
    36    23    19   ar
    37    30    25   ar
@<TRIPOS>MOLECULE
*****
 34 37 0 0 0
SMALL
GASTEIGER

@<TRIPOS>ATOM
      1 C         141.7972  139.5954  167.5740 C.3     1  UNL1        0.1106
      2 C         142.9984  138.9526  166.9464 C.3     1  UNL1        0.0400
      3 C         142.8791  138.2863  165.6078 C.3     1  UNL1        0.0743
      4 N         141.5586  138.2628  164.8968 N.3     1  UNL1       -0.2665
      5 C         140.3573  138.9057  165.5243 C.3     1  UNL1        0.1098
      6 C         140.4766  139.5719  166.8629 C.3     1  UNL1        0.1948
      7 F         139.2754  140.2147  167.4905 F       1  UNL1       -0.2340
      8 C         141.3783  139.5845  170.1380 C.3     1  UNL1        0.1149
      9 N         141.9166  140.2616  168.9126 N.am    1  UNL1       -0.2763
     10 C         142.5742  141.6051  169.0257 C.2     1  UNL1        0.2301
     11 O         142.6935  142.2714  170.3643 O.2     1  UNL1       -0.2745
     12 C         143.1124  142.2822  167.8002 C.3     1  UNL1        0.1116
     13 C         142.2410  142.4469  166.5904 C.ar    1  UNL1       -0.0130
     14 C         140.8418  142.9666  166.7391 C.ar    1  UNL1       -0.0022
     15 C         139.9705  143.1313  165.5293 C.ar    1  UNL1        0.0190
     16 C         140.4983  142.7763  164.1709 C.ar    1  UNL1        0.0862
     17 C         141.8976  142.2567  164.0222 C.ar    1  UNL1        0.0190
     18 C         142.7689  142.0920  165.2320 C.ar    1  UNL1       -0.0022
     19 N         139.6269  142.9410  162.9611 N.ar    1  UNL1       -0.1886
     20 C         140.0512  143.5104  161.6398 C.ar    1  UNL1        0.2258
     21 N         138.8648  143.4866  160.7223 N.ar    1  UNL1       -0.1045
     22 N         137.7072  142.9025  161.4765 N.ar    1  UNL1       -0.0222
     23 N         138.1783  142.5653  162.8602 N.ar    1  UNL1       -0.0385
     24 C         141.4392  137.5966  163.5582 C.3     1  UNL1        0.0992
     25 C         140.6392  138.2439  162.4669 C.ar    1  UNL1       -0.0062
     26 C         141.2573  139.3156  161.6188 C.ar    1  UNL1       -0.0030
     27 C         140.4573  139.9630  160.5274 C.ar    1  UNL1        0.0036
     28 C         139.0393  139.5385  160.2842 C.ar    1  UNL1        0.0714
     29 C         138.4213  138.4667  161.1324 C.ar    1  UNL1        0.0036
     30 C         139.2213  137.8194  162.2237 C.ar    1  UNL1       -0.0030
     31 C         138.2393  140.1858  159.1929 C.3     1  UNL1        0.4186
     32 F         137.4393  140.8331  158.1016 F       1  UNL1       -0.1659
     33 F         136.9708  139.8054  159.8972 F       1  UNL1       -0.1659
     34 F         139.5078  140.5662  158.4886 F       1  UNL1       -0.1659
@<TRIPOS>BOND
     1     8     9    1
     2     9    10   am
     3    10    11    2
     4    10    12    1
     5    12    13    1
     6    13    14   ar
     7    14    15   ar
     8    15    16   ar
     9    16    19    1
    10    19    20   ar
    11    20    21   ar
    12    21    22   ar
    13    22    23   ar
    14    16    17   ar
    15    17    18   ar
    16     1     9    1
    17     1     2    1
    18     2     3    1
    19     3     4    1
    20     4    24    1
    21    24    25    1
    22    25    26   ar
    23    26    27   ar
    24    27    28   ar
    25    28    31    1
    26    31    32    1
    27    31    33    1
    28    31    34    1
    29    28    29   ar
    30    29    30   ar
    31     4     5    1
    32     5     6    1
    33     6     7    1
    34    18    13   ar
    35     6     1    1
    36    23    19   ar
    37    30    25   ar
