@<TRIPOS>MOLECULE
*****
 23 26 0 0 0
SMALL
GASTEIGER

@<TRIPOS>ATOM
      1 C         138.5780  139.3184  165.7214 C.ar    1  UNL1       -0.0207
      2 C         138.8973  138.0062  165.0686 C.ar    1  UNL1       -0.0027
      3 C         138.9556  137.9072  163.5730 C.ar    1  UNL1        0.0188
      4 C         138.6945  139.1204  162.7303 C.ar    1  UNL1        0.0812
      5 N         138.7528  139.0214  161.2347 N.ar    1  UNL1       -0.2449
      6 C         138.4918  140.2345  160.3920 C.ar    1  UNL1        0.0872
      7 C         138.1725  141.5467  161.0450 C.ar    1  UNL1        0.0197
      8 C         138.1142  141.6457  162.5405 C.ar    1  UNL1        0.0030
      9 C         138.3752  140.4325  163.3832 C.ar    1  UNL1        0.0174
     10 C         138.3170  140.5315  164.8788 C.ar    1  UNL1       -0.0027
     11 C         138.5500  140.1355  158.8964 C.ar    1  UNL1        0.0471
     12 C         137.6857  140.8881  157.9286 C.ar    1  UNL1        0.0085
     13 C         138.0843  140.4843  156.5401 C.ar    1  UNL1        0.0075
     14 C         139.1950  139.4821  156.6498 C.ar    1  UNL1        0.0355
     15 S         139.4828  139.2666  158.1060 S.2     1  UNL1       -0.0849
     16 C         138.5198  139.4174  167.2171 C.3     1  UNL1        0.0437
     17 C         139.7641  139.7211  167.9977 C.3     1  UNL1        0.0768
     18 C         140.9603  142.4603  166.6881 C.3     1  UNL1        0.0173
     19 C         140.4587  142.3006  168.0926 C.3     1  UNL1        0.0576
     20 C         140.4187  143.3718  169.1418 C.3     1  UNL1        0.0174
     21 C         139.8442  142.7748  170.3923 C.3     1  UNL1        0.0187
     22 C         139.5291  141.3345  170.1158 C.3     1  UNL1        0.0721
     23 N         139.9088  141.0415  168.6946 N.3     1  UNL1       -0.2737
@<TRIPOS>BOND
     1    18    19    1
     2    19    20    1
     3    20    21    1
     4    21    22    1
     5    22    23    1
     6    23    17    1
     7    17    16    1
     8    16     1    1
     9     1     2   ar
    10     2     3   ar
    11     3     4   ar
    12     4     5   ar
    13     5     6   ar
    14     6    11    1
    15    11    12   ar
    16    12    13   ar
    17    13    14   ar
    18    14    15   ar
    19     6     7   ar
    20     7     8   ar
    21     8     9   ar
    22     9    10   ar
    23    23    19    1
    24    10     1   ar
    25     9     4   ar
    26    15    11   ar
@<TRIPOS>MOLECULE
*****
 23 26 0 0 0
SMALL
GASTEIGER

@<TRIPOS>ATOM
      1 C         139.3484  137.6483  164.5320 C.ar    1  UNL1       -0.0207
      2 C         140.8339  137.4655  164.6304 C.ar    1  UNL1       -0.0027
      3 C         141.6897  137.6076  163.4067 C.ar    1  UNL1        0.0188
      4 C         141.0599  137.9324  162.0847 C.ar    1  UNL1        0.0812
      5 N         141.9157  138.0744  160.8609 N.ar    1  UNL1       -0.2449
      6 C         141.2860  138.3992  159.5389 C.ar    1  UNL1        0.0872
      7 C         139.8003  138.5820  159.4405 C.ar    1  UNL1        0.0197
      8 C         138.9446  138.4399  160.6642 C.ar    1  UNL1        0.0030
      9 C         139.5744  138.1151  161.9863 C.ar    1  UNL1        0.0174
     10 C         138.7186  137.9731  163.2100 C.ar    1  UNL1       -0.0027
     11 C         142.1417  138.5413  158.3152 C.ar    1  UNL1        0.0471
     12 C         142.3988  137.4764  157.2906 C.ar    1  UNL1        0.0085
     13 C         143.3066  138.0501  156.2434 C.ar    1  UNL1        0.0075
     14 C         143.6106  139.4697  156.6208 C.ar    1  UNL1        0.0355
     15 S         142.8906  139.7732  157.9012 S.2     1  UNL1       -0.0849
     16 C         138.4925  137.5062  165.7558 C.3     1  UNL1        0.0437
     17 C         138.0412  138.7271  166.5012 C.3     1  UNL1        0.0768
     18 C         138.2301  141.2936  164.4945 C.3     1  UNL1        0.0173
     19 C         139.0530  141.0780  165.7299 C.3     1  UNL1        0.0576
     20 C         140.1072  142.0041  166.2599 C.3     1  UNL1        0.0174
     21 C         140.6720  141.3968  167.5098 C.3     1  UNL1        0.0187
     22 C         139.9667  140.0952  167.7524 C.3     1  UNL1        0.0721
     23 N         138.9662  139.8983  166.6523 N.3     1  UNL1       -0.2737
@<TRIPOS>BOND
     1    18    19    1
     2    19    20    1
     3    20    21    1
     4    21    22    1
     5    22    23    1
     6    23    17    1
     7    17    16    1
     8    16     1    1
     9     1     2   ar
    10     2     3   ar
    11     3     4   ar
    12     4     5   ar
    13     5     6   ar
    14     6    11    1
    15    11    12   ar
    16    12    13   ar
    17    13    14   ar
    18    14    15   ar
    19     6     7   ar
    20     7     8   ar
    21     8     9   ar
    22     9    10   ar
    23    23    19    1
    24    10     1   ar
    25     9     4   ar
    26    15    11   ar
@<TRIPOS>MOLECULE
*****
 23 26 0 0 0
SMALL
GASTEIGER

@<TRIPOS>ATOM
      1 C         142.1391  140.0390  167.1441 C.ar    1  UNL1       -0.0207
      2 C         140.8537  139.7042  166.4473 C.ar    1  UNL1       -0.0027
      3 C         140.4453  140.4648  165.2207 C.ar    1  UNL1        0.0188
      4 C         141.3223  141.5603  164.6909 C.ar    1  UNL1        0.0812
      5 N         140.9138  142.3209  163.4642 N.ar    1  UNL1       -0.2449
      6 C         141.7909  143.4164  162.9344 C.ar    1  UNL1        0.0872
      7 C         143.0763  143.7513  163.6312 C.ar    1  UNL1        0.0197
      8 C         143.4848  142.9907  164.8578 C.ar    1  UNL1        0.0030
      9 C         142.6077  141.8952  165.3876 C.ar    1  UNL1        0.0174
     10 C         143.0162  141.1345  166.6142 C.ar    1  UNL1       -0.0027
     11 C         141.3824  144.1771  161.7078 C.ar    1  UNL1        0.0471
     12 C         141.9432  143.9931  160.3287 C.ar    1  UNL1        0.0085
     13 C         141.2489  144.9575  159.4135 C.ar    1  UNL1        0.0075
     14 C         140.2590  145.7376  160.2269 C.ar    1  UNL1        0.0355
     15 S         140.3415  145.2553  161.6448 S.2     1  UNL1       -0.0849
     16 C         142.5476  139.2784  168.3707 C.3     1  UNL1        0.0437
     17 C         142.1162  139.7538  169.7264 C.3     1  UNL1        0.0768
     18 C         143.8736  142.4972  169.9124 C.3     1  UNL1        0.0173
     19 C         142.3783  142.4017  169.9817 C.3     1  UNL1        0.0576
     20 C         141.4282  143.5504  170.1487 C.3     1  UNL1        0.0174
     21 C         140.0332  142.9994  170.1663 C.3     1  UNL1        0.0187
     22 C         140.1211  141.5100  170.0103 C.3     1  UNL1        0.0721
     23 N         141.5705  141.1407  169.8962 N.3     1  UNL1       -0.2737
@<TRIPOS>BOND
     1    18    19    1
     2    19    20    1
     3    20    21    1
     4    21    22    1
     5    22    23    1
     6    23    17    1
     7    17    16    1
     8    16     1    1
     9     1     2   ar
    10     2     3   ar
    11     3     4   ar
    12     4     5   ar
    13     5     6   ar
    14     6    11    1
    15    11    12   ar
    16    12    13   ar
    17    13    14   ar
    18    14    15   ar
    19     6     7   ar
    20     7     8   ar
    21     8     9   ar
    22     9    10   ar
    23    23    19    1
    24    10     1   ar
    25     9     4   ar
    26    15    11   ar
@<TRIPOS>MOLECULE
*****
 23 26 0 0 0
SMALL
GASTEIGER

@<TRIPOS>ATOM
      1 C         142.7313  138.4263  165.2631 C.ar    1  UNL1       -0.0207
      2 C         141.5447  137.5807  164.9070 C.ar    1  UNL1       -0.0027
      3 C         141.2084  137.3287  163.4671 C.ar    1  UNL1        0.0188
      4 C         142.0587  137.9223  162.3833 C.ar    1  UNL1        0.0812
      5 N         141.7223  137.6703  160.9433 N.ar    1  UNL1       -0.2449
      6 C         142.5727  138.2638  159.8595 C.ar    1  UNL1        0.0872
      7 C         143.7594  139.1094  160.2157 C.ar    1  UNL1        0.0197
      8 C         144.0957  139.3614  161.6556 C.ar    1  UNL1        0.0030
      9 C         143.2453  138.7679  162.7394 C.ar    1  UNL1        0.0174
     10 C         143.5816  139.0199  164.1793 C.ar    1  UNL1       -0.0027
     11 C         142.2364  138.0118  158.4197 C.ar    1  UNL1        0.0471
     12 C         142.7793  136.9024  157.5685 C.ar    1  UNL1        0.0085
     13 C         142.1766  137.0299  156.2009 C.ar    1  UNL1        0.0075
     14 C         141.2611  138.2182  156.2068 C.ar    1  UNL1        0.0355
     15 S         141.2981  138.8250  157.5781 S.2     1  UNL1       -0.0849
     16 C         143.0677  138.6783  166.7031 C.3     1  UNL1        0.0437
     17 C         142.6936  139.9821  167.3435 C.3     1  UNL1        0.0768
     18 C         139.5385  140.3128  166.5785 C.3     1  UNL1        0.0173
     19 C         140.1019  140.1923  167.9634 C.3     1  UNL1        0.0576
     20 C         139.3141  140.2026  169.2398 C.3     1  UNL1        0.0174
     21 C         140.2775  140.0570  170.3804 C.3     1  UNL1        0.0187
     22 C         141.6608  139.9567  169.8088 C.3     1  UNL1        0.0721
     23 N         141.5522  140.0403  168.3151 N.3     1  UNL1       -0.2737
@<TRIPOS>BOND
     1    18    19    1
     2    19    20    1
     3    20    21    1
     4    21    22    1
     5    22    23    1
     6    23    17    1
     7    17    16    1
     8    16     1    1
     9     1     2   ar
    10     2     3   ar
    11     3     4   ar
    12     4     5   ar
    13     5     6   ar
    14     6    11    1
    15    11    12   ar
    16    12    13   ar
    17    13    14   ar
    18    14    15   ar
    19     6     7   ar
    20     7     8   ar
    21     8     9   ar
    22     9    10   ar
    23    23    19    1
    24    10     1   ar
    25     9     4   ar
    26    15    11   ar
@<TRIPOS>MOLECULE
*****
 23 26 0 0 0
SMALL
GASTEIGER

@<TRIPOS>ATOM
      1 C         139.3142  139.8429  167.9858 C.ar    1  UNL1       -0.0207
      2 C         138.2953  139.0721  167.1999 C.ar    1  UNL1       -0.0027
      3 C         138.5793  138.6865  165.7785 C.ar    1  UNL1        0.0188
      4 C         139.8822  139.0717  165.1429 C.ar    1  UNL1        0.0812
      5 N         140.1662  138.6860  163.7213 N.ar    1  UNL1       -0.2449
      6 C         141.4691  139.0712  163.0857 C.ar    1  UNL1        0.0872
      7 C         142.4880  139.8421  163.8716 C.ar    1  UNL1        0.0197
      8 C         142.2040  140.2277  165.2931 C.ar    1  UNL1        0.0030
      9 C         140.9011  139.8425  165.9287 C.ar    1  UNL1        0.0174
     10 C         140.6171  140.2281  167.3502 C.ar    1  UNL1       -0.0027
     11 C         141.7531  138.6856  161.6642 C.ar    1  UNL1        0.0471
     12 C         142.9353  137.8971  161.1839 C.ar    1  UNL1        0.0085
     13 C         142.8176  137.7450  159.6963 C.ar    1  UNL1        0.0075
     14 C         141.5626  138.4395  159.2572 C.ar    1  UNL1        0.0355
     15 S         140.9048  139.0209  160.4735 S.2     1  UNL1       -0.0849
     16 C         139.0302  140.2285  169.4073 C.3     1  UNL1        0.0437
     17 C         140.1239  140.1726  170.4324 C.3     1  UNL1        0.0768
     18 C         140.1534  143.4269  170.1925 C.3     1  UNL1        0.0173
     19 C         141.3555  142.5301  170.1671 C.3     1  UNL1        0.0576
     20 C         142.7822  142.9716  170.0271 C.3     1  UNL1        0.0174
     21 C         143.6504  141.7486  170.0508 C.3     1  UNL1        0.0187
     22 C         142.7602  140.5512  170.2055 C.3     1  UNL1        0.0721
     23 N         141.3419  141.0342  170.2774 N.3     1  UNL1       -0.2737
@<TRIPOS>BOND
     1    18    19    1
     2    19    20    1
     3    20    21    1
     4    21    22    1
     5    22    23    1
     6    23    17    1
     7    17    16    1
     8    16     1    1
     9     1     2   ar
    10     2     3   ar
    11     3     4   ar
    12     4     5   ar
    13     5     6   ar
    14     6    11    1
    15    11    12   ar
    16    12    13   ar
    17    13    14   ar
    18    14    15   ar
    19     6     7   ar
    20     7     8   ar
    21     8     9   ar
    22     9    10   ar
    23    23    19    1
    24    10     1   ar
    25     9     4   ar
    26    15    11   ar
@<TRIPOS>MOLECULE
*****
 23 26 0 0 0
SMALL
GASTEIGER

@<TRIPOS>ATOM
      1 C         140.2076  145.1349  163.1119 C.ar    1  UNL1       -0.0207
      2 C         139.0331  144.7096  163.9424 C.ar    1  UNL1       -0.0027
      3 C         139.2382  143.8150  165.1287 C.ar    1  UNL1        0.0188
      4 C         140.6178  143.3457  165.4847 C.ar    1  UNL1        0.0812
      5 N         140.8228  142.4510  166.6712 N.ar    1  UNL1       -0.2449
      6 C         142.2023  141.9818  167.0271 C.ar    1  UNL1        0.0872
      7 C         143.3768  142.4072  166.1966 C.ar    1  UNL1        0.0197
      8 C         143.1717  143.3018  165.0102 C.ar    1  UNL1        0.0030
      9 C         141.7922  143.7710  164.6542 C.ar    1  UNL1        0.0174
     10 C         141.5871  144.6656  163.4678 C.ar    1  UNL1       -0.0027
     11 C         142.4074  141.0872  168.2135 C.ar    1  UNL1        0.0471
     12 C         142.2111  139.6003  168.2410 C.ar    1  UNL1        0.0085
     13 C         142.5271  139.1166  169.6252 C.ar    1  UNL1        0.0075
     14 C         142.9189  140.3045  170.4532 C.ar    1  UNL1        0.0355
     15 S         142.8449  141.5223  169.5807 S.2     1  UNL1       -0.0849
     16 C         140.0025  146.0295  161.9254 C.3     1  UNL1        0.0437
     17 C         140.0887  145.4666  160.5378 C.3     1  UNL1        0.0768
     18 C         138.4782  142.6481  160.8718 C.3     1  UNL1        0.0173
     19 C         139.9159  142.7999  160.4721 C.3     1  UNL1        0.0576
     20 C         140.8658  141.6829  160.1558 C.3     1  UNL1        0.0174
     21 C         142.1932  142.2881  159.8067 C.3     1  UNL1        0.0187
     22 C         142.0637  143.7792  159.9074 C.3     1  UNL1        0.0721
     23 N         140.6562  144.0954  160.3186 N.3     1  UNL1       -0.2737
@<TRIPOS>BOND
     1    18    19    1
     2    19    20    1
     3    20    21    1
     4    21    22    1
     5    22    23    1
     6    23    17    1
     7    17    16    1
     8    16     1    1
     9     1     2   ar
    10     2     3   ar
    11     3     4   ar
    12     4     5   ar
    13     5     6   ar
    14     6    11    1
    15    11    12   ar
    16    12    13   ar
    17    13    14   ar
    18    14    15   ar
    19     6     7   ar
    20     7     8   ar
    21     8     9   ar
    22     9    10   ar
    23    23    19    1
    24    10     1   ar
    25     9     4   ar
    26    15    11   ar
@<TRIPOS>MOLECULE
*****
 23 26 0 0 0
SMALL
GASTEIGER

@<TRIPOS>ATOM
      1 C         139.4473  140.4863  166.8687 C.ar    1  UNL1       -0.0207
      2 C         138.9444  139.6427  165.7350 C.ar    1  UNL1       -0.0027
      3 C         138.9961  140.1662  164.3303 C.ar    1  UNL1        0.0188
      4 C         139.5507  141.5333  164.0593 C.ar    1  UNL1        0.0812
      5 N         139.6024  142.0567  162.6545 N.ar    1  UNL1       -0.2449
      6 C         140.1570  143.4238  162.3835 C.ar    1  UNL1        0.0872
      7 C         140.6599  144.2675  163.5173 C.ar    1  UNL1        0.0197
      8 C         140.6082  143.7440  164.9220 C.ar    1  UNL1        0.0030
      9 C         140.0536  142.3769  165.1930 C.ar    1  UNL1        0.0174
     10 C         140.0019  141.8534  166.5977 C.ar    1  UNL1       -0.0027
     11 C         140.2087  143.9473  160.9788 C.ar    1  UNL1        0.0471
     12 C         139.5800  143.3085  159.7761 C.ar    1  UNL1        0.0085
     13 C         139.8809  144.1679  158.5841 C.ar    1  UNL1        0.0075
     14 C         140.6957  145.3379  159.0502 C.ar    1  UNL1        0.0355
     15 S         140.8983  145.2016  160.5302 S.2     1  UNL1       -0.0849
     16 C         139.3956  139.9628  168.2735 C.3     1  UNL1        0.0437
     17 C         139.6516  140.8859  169.4278 C.3     1  UNL1        0.0768
     18 C         140.4256  144.0111  169.9602 C.3     1  UNL1        0.0173
     19 C         141.3870  142.8609  169.9106 C.3     1  UNL1        0.0576
     20 C         142.8730  142.9452  170.0970 C.3     1  UNL1        0.0174
     21 C         143.4357  141.5607  169.9674 C.3     1  UNL1        0.0187
     22 C         142.2974  140.6208  169.7010 C.3     1  UNL1        0.0721
     23 N         141.0313  141.4244  169.6659 N.3     1  UNL1       -0.2737
@<TRIPOS>BOND
     1    18    19    1
     2    19    20    1
     3    20    21    1
     4    21    22    1
     5    22    23    1
     6    23    17    1
     7    17    16    1
     8    16     1    1
     9     1     2   ar
    10     2     3   ar
    11     3     4   ar
    12     4     5   ar
    13     5     6   ar
    14     6    11    1
    15    11    12   ar
    16    12    13   ar
    17    13    14   ar
    18    14    15   ar
    19     6     7   ar
    20     7     8   ar
    21     8     9   ar
    22     9    10   ar
    23    23    19    1
    24    10     1   ar
    25     9     4   ar
    26    15    11   ar
@<TRIPOS>MOLECULE
*****
 23 26 0 0 0
SMALL
GASTEIGER

@<TRIPOS>ATOM
      1 C         143.5173  143.1675  164.7234 C.ar    1  UNL1       -0.0207
      2 C         144.5127  142.7671  163.6752 C.ar    1  UNL1       -0.0027
      3 C         144.2461  143.0745  162.2315 C.ar    1  UNL1        0.0188
      4 C         142.9841  143.7823  161.8360 C.ar    1  UNL1        0.0812
      5 N         142.7175  144.0897  160.3922 N.ar    1  UNL1       -0.2449
      6 C         141.4555  144.7975  159.9967 C.ar    1  UNL1        0.0872
      7 C         140.4601  145.1979  161.0451 C.ar    1  UNL1        0.0197
      8 C         140.7267  144.8905  162.4888 C.ar    1  UNL1        0.0030
      9 C         141.9887  144.1827  162.8842 C.ar    1  UNL1        0.0174
     10 C         142.2554  143.8753  164.3280 C.ar    1  UNL1       -0.0027
     11 C         141.1889  145.1049  158.5530 C.ar    1  UNL1        0.0471
     12 C         142.0576  145.9323  157.6527 C.ar    1  UNL1        0.0085
     13 C         141.4124  145.9776  156.2993 C.ar    1  UNL1        0.0075
     14 C         140.1447  145.1781  156.3633 C.ar    1  UNL1        0.0355
     15 S         140.0066  144.6388  157.7561 S.2     1  UNL1       -0.0849
     16 C         143.7839  142.8601  166.1672 C.3     1  UNL1        0.0437
     17 C         142.8858  141.9171  166.9115 C.3     1  UNL1        0.0768
     18 C         144.0688  142.4394  169.9077 C.3     1  UNL1        0.0173
     19 C         142.6478  142.6434  169.4730 C.3     1  UNL1        0.0576
     20 C         141.5210  143.1233  170.3390 C.3     1  UNL1        0.0174
     21 C         140.2808  143.1798  169.4971 C.3     1  UNL1        0.0187
     22 C         140.6412  142.7348  168.1106 C.3     1  UNL1        0.0721
     23 N         142.1040  142.4033  168.0958 N.3     1  UNL1       -0.2737
@<TRIPOS>BOND
     1    18    19    1
     2    19    20    1
     3    20    21    1
     4    21    22    1
     5    22    23    1
     6    23    17    1
     7    17    16    1
     8    16     1    1
     9     1     2   ar
    10     2     3   ar
    11     3     4   ar
    12     4     5   ar
    13     5     6   ar
    14     6    11    1
    15    11    12   ar
    16    12    13   ar
    17    13    14   ar
    18    14    15   ar
    19     6     7   ar
    20     7     8   ar
    21     8     9   ar
    22     9    10   ar
    23    23    19    1
    24    10     1   ar
    25     9     4   ar
    26    15    11   ar
@<TRIPOS>MOLECULE
*****
 23 26 0 0 0
SMALL
GASTEIGER

@<TRIPOS>ATOM
      1 C         138.4973  139.0992  165.5604 C.ar    1  UNL1       -0.0207
      2 C         138.8849  137.8177  164.8840 C.ar    1  UNL1       -0.0027
      3 C         138.9735  137.7564  163.3879 C.ar    1  UNL1        0.0188
      4 C         138.6745  138.9765  162.5682 C.ar    1  UNL1        0.0812
      5 N         138.7631  138.9151  161.0721 N.ar    1  UNL1       -0.2449
      6 C         138.4641  140.1353  160.2524 C.ar    1  UNL1        0.0872
      7 C         138.0765  141.4168  160.9289 C.ar    1  UNL1        0.0197
      8 C         137.9879  141.4781  162.4250 C.ar    1  UNL1        0.0030
      9 C         138.2869  140.2580  163.2447 C.ar    1  UNL1        0.0174
     10 C         138.1983  140.3193  164.7407 C.ar    1  UNL1       -0.0027
     11 C         138.5527  140.0740  158.7563 C.ar    1  UNL1        0.0471
     12 C         137.6944  140.8356  157.7903 C.ar    1  UNL1        0.0085
     13 C         138.1263  140.4726  156.4004 C.ar    1  UNL1        0.0075
     14 C         139.2517  139.4865  156.5075 C.ar    1  UNL1        0.0355
     15 S         139.5151  139.2402  157.9635 S.2     1  UNL1       -0.0849
     16 C         138.4087  139.1606  167.0566 C.3     1  UNL1        0.0437
     17 C         139.4680  139.8755  167.8419 C.3     1  UNL1        0.0768
     18 C         140.2379  142.8359  166.7049 C.3     1  UNL1        0.0173
     19 C         141.1139  141.6191  166.6605 C.3     1  UNL1        0.0576
     20 C         142.4977  141.5495  166.0857 C.3     1  UNL1        0.0174
     21 C         142.9990  140.1457  166.2530 C.3     1  UNL1        0.0187
     22 C         141.9251  139.3477  166.9313 C.3     1  UNL1        0.0721
     23 N         140.7601  140.2584  167.1831 N.3     1  UNL1       -0.2737
@<TRIPOS>BOND
     1    18    19    1
     2    19    20    1
     3    20    21    1
     4    21    22    1
     5    22    23    1
     6    23    17    1
     7    17    16    1
     8    16     1    1
     9     1     2   ar
    10     2     3   ar
    11     3     4   ar
    12     4     5   ar
    13     5     6   ar
    14     6    11    1
    15    11    12   ar
    16    12    13   ar
    17    13    14   ar
    18    14    15   ar
    19     6     7   ar
    20     7     8   ar
    21     8     9   ar
    22     9    10   ar
    23    23    19    1
    24    10     1   ar
    25     9     4   ar
    26    15    11   ar
