@<TRIPOS>MOLECULE
*****
 31 35 0 0 0
SMALL
GASTEIGER

@<TRIPOS>ATOM
      1 C         138.5734  144.7363  165.5209 C.3     1  UNL1        0.0212
      2 C         139.5937  144.2300  164.5448 C.3     1  UNL1        0.0705
      3 N         140.9578  143.8316  165.0248 N.pl3   1  UNL1       -0.3322
      4 H         141.7111  144.4604  164.9444 H       1  UNL1        0.1468
      5 C         141.1743  142.4750  165.6274 C.ar    1  UNL1        0.0754
      6 C         140.8779  142.2434  167.0794 C.ar    1  UNL1        0.1722
      7 F         140.3650  143.3682  167.9289 F       1  UNL1       -0.2012
      8 C         141.0943  140.8869  167.6819 C.ar    1  UNL1        0.1296
      9 N         141.6072  139.7621  166.8324 N.ar    1  UNL1       -0.2414
     10 C         141.9037  139.9937  165.3803 C.ar    1  UNL1        0.0835
     11 C         142.4166  138.8689  164.5308 C.ar    1  UNL1        0.0305
     12 C         142.7130  139.1005  163.0788 C.ar    1  UNL1        0.0592
     13 CL        143.2259  137.9757  162.2293 Cl      1  UNL1       -0.0822
     14 C         142.4965  140.4571  162.4762 C.ar    1  UNL1        0.0115
     15 C         141.9836  141.5819  163.3258 C.ar    1  UNL1        0.0037
     16 C         141.6872  141.3502  164.7778 C.ar    1  UNL1        0.0331
     17 C         139.2499  144.1221  163.0887 C.3     1  UNL1        0.0365
     18 C         137.8431  143.8111  162.6714 C.3     1  UNL1        0.0703
     19 N         137.3524  142.3937  162.6858 N.3     1  UNL1       -0.2974
     20 H         136.6659  142.3121  161.9358 H       1  UNL1        0.1232
     21 C         138.3219  141.2626  162.5102 C.3     1  UNL1        0.0685
     22 C         138.4272  140.1954  163.5591 C.3     1  UNL1        0.0145
     23 C         138.9189  138.8272  163.1902 C.3     1  UNL1        0.0013
     24 C         139.0242  137.7601  164.2390 C.3     1  UNL1        0.0000
     25 C         138.6377  138.0611  165.6567 C.3     1  UNL1        0.0000
     26 C         138.1459  139.4293  166.0256 C.3     1  UNL1        0.0000
     27 C         138.7984  139.4899  162.8039 C.3     1  UNL1        0.0000
     28 C         139.3054  138.5261  161.7724 C.3     1  UNL1        0.0000
     29 C         139.4107  137.4590  162.8212 C.3     1  UNL1        0.0000
     30 C         138.8137  139.8943  162.1413 C.3     1  UNL1        0.0013
     31 C         138.0407  140.4965  164.9768 C.3     1  UNL1        0.0013
@<TRIPOS>BOND
     1     1     2    1
     2     2    17    1
     3    17    18    1
     4    18    19    1
     5    19    21    1
     6    21    22    1
     7    22    23    1
     8    23    24    1
     9    24    25    1
    10    25    26    1
    11    26    27    1
    12    27    28    1
    13    28    29    1
    14    28    30    1
    15    26    31    1
    16     2     3    1
    17     3     5    1
    18     5     6   ar
    19     6     7    1
    20     6     8   ar
    21     8     9   ar
    22     9    10   ar
    23    10    11   ar
    24    11    12   ar
    25    12    13    1
    26    12    14   ar
    27    14    15   ar
    28    15    16   ar
    29    30    22    1
    30    16     5   ar
    31    31    22    1
    32    16    10   ar
    33    29    24    1
    34    19    20    1
    35     3     4    1
@<TRIPOS>MOLECULE
*****
 31 35 0 0 0
SMALL
GASTEIGER

@<TRIPOS>ATOM
      1 C         138.6993  137.8525  165.2484 C.3     1  UNL1        0.0212
      2 C         138.5315  139.2189  164.6526 C.3     1  UNL1        0.0705
      3 N         138.5271  140.4285  165.5397 N.pl3   1  UNL1       -0.3322
      4 H         137.8369  141.1210  165.4243 H       1  UNL1        0.1468
      5 C         139.5742  140.5829  166.6026 C.ar    1  UNL1        0.0754
      6 C         139.3579  139.9846  167.9610 C.ar    1  UNL1        0.1722
      7 F         138.0946  139.2319  168.2565 F       1  UNL1       -0.2012
      8 C         140.4051  140.1390  169.0238 C.ar    1  UNL1        0.1296
      9 N         141.6684  140.8917  168.7283 N.ar    1  UNL1       -0.2414
     10 C         141.8847  141.4900  167.3699 C.ar    1  UNL1        0.0835
     11 C         143.1481  142.2427  167.0744 C.ar    1  UNL1        0.0305
     12 C         143.3643  142.8410  165.7160 C.ar    1  UNL1        0.0592
     13 CL        144.6277  143.5936  165.4204 Cl      1  UNL1       -0.0822
     14 C         142.3172  142.6866  164.6530 C.ar    1  UNL1        0.0115
     15 C         141.0538  141.9339  164.9486 C.ar    1  UNL1        0.0037
     16 C         140.8376  141.3356  166.3071 C.ar    1  UNL1        0.0331
     17 C         138.3681  139.3756  163.1698 C.3     1  UNL1        0.0365
     18 C         139.5580  139.6933  162.3136 C.3     1  UNL1        0.0703
     19 N         140.4064  138.5835  161.7670 N.3     1  UNL1       -0.2974
     20 H         140.8453  138.9393  160.9178 H       1  UNL1        0.1232
     21 C         141.5012  137.9937  162.6057 C.3     1  UNL1        0.0685
     22 C         142.7083  138.8152  162.9493 C.3     1  UNL1        0.0145
     23 C         143.2476  138.8069  164.3489 C.3     1  UNL1        0.0013
     24 C         144.4546  139.6285  164.6924 C.3     1  UNL1        0.0000
     25 C         145.1224  140.4584  163.6363 C.3     1  UNL1        0.0000
     26 C         144.5831  140.4667  162.2367 C.3     1  UNL1        0.0000
     27 C         142.6540  138.4610  163.9872 C.3     1  UNL1        0.0000
     28 C         142.5799  137.9771  165.4051 C.3     1  UNL1        0.0000
     29 C         143.7869  138.7986  165.7486 C.3     1  UNL1        0.0000
     30 C         142.0406  137.9854  164.0054 C.3     1  UNL1        0.0013
     31 C         143.3761  139.6451  161.8931 C.3     1  UNL1        0.0013
@<TRIPOS>BOND
     1     1     2    1
     2     2    17    1
     3    17    18    1
     4    18    19    1
     5    19    21    1
     6    21    22    1
     7    22    23    1
     8    23    24    1
     9    24    25    1
    10    25    26    1
    11    26    27    1
    12    27    28    1
    13    28    29    1
    14    28    30    1
    15    26    31    1
    16     2     3    1
    17     3     5    1
    18     5     6   ar
    19     6     7    1
    20     6     8   ar
    21     8     9   ar
    22     9    10   ar
    23    10    11   ar
    24    11    12   ar
    25    12    13    1
    26    12    14   ar
    27    14    15   ar
    28    15    16   ar
    29    30    22    1
    30    16     5   ar
    31    31    22    1
    32    16    10   ar
    33    29    24    1
    34    19    20    1
    35     3     4    1
@<TRIPOS>MOLECULE
*****
 31 35 0 0 0
SMALL
GASTEIGER

@<TRIPOS>ATOM
      1 C         143.7725  140.0632  160.1098 C.3     1  UNL1        0.0212
      2 C         144.0008  139.3257  161.3959 C.3     1  UNL1        0.0705
      3 N         144.7836  139.9703  162.5013 N.pl3   1  UNL1       -0.3322
      4 H         145.6914  139.6527  162.7117 H       1  UNL1        0.1468
      5 C         144.1831  141.0988  163.2862 C.ar    1  UNL1        0.0754
      6 C         144.3829  142.5155  162.8355 C.ar    1  UNL1        0.1722
      7 F         145.1831  142.8037  161.6000 F       1  UNL1       -0.2012
      8 C         143.7824  143.6439  163.6204 C.ar    1  UNL1        0.1296
      9 N         142.9822  143.3557  164.8560 N.ar    1  UNL1       -0.2414
     10 C         142.7824  141.9390  165.3066 C.ar    1  UNL1        0.0835
     11 C         141.9822  141.6508  166.5422 C.ar    1  UNL1        0.0305
     12 C         141.7824  140.2341  166.9928 C.ar    1  UNL1        0.0592
     13 CL        140.9822  139.9459  168.2284 Cl      1  UNL1       -0.0822
     14 C         142.3829  139.1056  166.2079 C.ar    1  UNL1        0.0115
     15 C         143.1831  139.3938  164.9724 C.ar    1  UNL1        0.0037
     16 C         143.3829  140.8106  164.5217 C.ar    1  UNL1        0.0331
     17 C         143.4465  137.9437  161.5766 C.3     1  UNL1        0.0365
     18 C         141.9625  137.7250  161.5761 C.3     1  UNL1        0.0703
     19 N         141.2825  137.1922  162.8025 N.3     1  UNL1       -0.2974
     20 H         141.8092  137.5377  163.6048 H       1  UNL1        0.1232
     21 C         139.8403  137.5141  163.0600 C.3     1  UNL1        0.0685
     22 C         139.4681  138.8005  163.7359 C.3     1  UNL1        0.0145
     23 C         138.7810  138.7758  165.0690 C.3     1  UNL1        0.0013
     24 C         138.4089  140.0622  165.7449 C.3     1  UNL1        0.0000
     25 C         138.7238  141.3732  165.0876 C.3     1  UNL1        0.0000
     26 C         139.4109  141.3979  163.7544 C.3     1  UNL1        0.0000
     27 C         139.0446  138.2359  164.5772 C.3     1  UNL1        0.0000
     28 C         138.4661  137.4648  165.7263 C.3     1  UNL1        0.0000
     29 C         138.0939  138.7512  166.4022 C.3     1  UNL1        0.0000
     30 C         139.1532  137.4895  164.3932 C.3     1  UNL1        0.0013
     31 C         139.7831  140.1115  163.0786 C.3     1  UNL1        0.0013
@<TRIPOS>BOND
     1     1     2    1
     2     2    17    1
     3    17    18    1
     4    18    19    1
     5    19    21    1
     6    21    22    1
     7    22    23    1
     8    23    24    1
     9    24    25    1
    10    25    26    1
    11    26    27    1
    12    27    28    1
    13    28    29    1
    14    28    30    1
    15    26    31    1
    16     2     3    1
    17     3     5    1
    18     5     6   ar
    19     6     7    1
    20     6     8   ar
    21     8     9   ar
    22     9    10   ar
    23    10    11   ar
    24    11    12   ar
    25    12    13    1
    26    12    14   ar
    27    14    15   ar
    28    15    16   ar
    29    30    22    1
    30    16     5   ar
    31    31    22    1
    32    16    10   ar
    33    29    24    1
    34    19    20    1
    35     3     4    1
@<TRIPOS>MOLECULE
*****
 31 35 0 0 0
SMALL
GASTEIGER

@<TRIPOS>ATOM
      1 C         138.5380  140.3308  160.5049 C.3     1  UNL1        0.0212
      2 C         137.9273  139.7010  161.7217 C.3     1  UNL1        0.0705
      3 N         137.2661  140.5595  162.7588 N.pl3   1  UNL1       -0.3322
      4 H         136.2997  140.4735  162.9259 H       1  UNL1        0.1468
      5 C         138.0774  141.5492  163.5415 C.ar    1  UNL1        0.0754
      6 C         138.2939  142.9330  163.0047 C.ar    1  UNL1        0.1722
      7 F         137.6991  143.3273  161.6854 F       1  UNL1       -0.2012
      8 C         139.1051  143.9226  163.7874 C.ar    1  UNL1        0.1296
      9 N         139.6999  143.5283  165.1068 N.ar    1  UNL1       -0.2414
     10 C         139.4835  142.1445  165.6435 C.ar    1  UNL1        0.0835
     11 C         140.0783  141.7502  166.9629 C.ar    1  UNL1        0.0305
     12 C         139.8618  140.3664  167.4996 C.ar    1  UNL1        0.0592
     13 CL        140.4566  139.9721  168.8190 Cl      1  UNL1       -0.0822
     14 C         139.0505  139.3767  166.7169 C.ar    1  UNL1        0.0115
     15 C         138.4557  139.7710  165.3976 C.ar    1  UNL1        0.0037
     16 C         138.6722  141.1549  164.8608 C.ar    1  UNL1        0.0331
     17 C         137.9779  138.2126  161.9012 C.3     1  UNL1        0.0365
     18 C         138.8354  137.6158  162.9775 C.3     1  UNL1        0.0703
     19 N         140.2453  137.2050  162.6716 N.3     1  UNL1       -0.2974
     20 H         140.4794  137.6087  161.7646 H       1  UNL1        0.1232
     21 C         141.3550  137.5761  163.6102 C.3     1  UNL1        0.0685
     22 C         141.7894  139.0069  163.7294 C.3     1  UNL1        0.0145
     23 C         142.5240  139.4682  164.9532 C.3     1  UNL1        0.0013
     24 C         142.9584  140.8989  165.0724 C.3     1  UNL1        0.0000
     25 C         142.6583  141.8684  163.9679 C.3     1  UNL1        0.0000
     26 C         141.9238  141.4071  162.7441 C.3     1  UNL1        0.0000
     27 C         142.2267  138.7921  164.7135 C.3     1  UNL1        0.0000
     28 C         142.8240  138.4987  166.0578 C.3     1  UNL1        0.0000
     29 C         143.2585  139.9294  166.1770 C.3     1  UNL1        0.0000
     30 C         142.0895  138.0375  164.8340 C.3     1  UNL1        0.0013
     31 C         141.4894  139.9764  162.6249 C.3     1  UNL1        0.0013
@<TRIPOS>BOND
     1     1     2    1
     2     2    17    1
     3    17    18    1
     4    18    19    1
     5    19    21    1
     6    21    22    1
     7    22    23    1
     8    23    24    1
     9    24    25    1
    10    25    26    1
    11    26    27    1
    12    27    28    1
    13    28    29    1
    14    28    30    1
    15    26    31    1
    16     2     3    1
    17     3     5    1
    18     5     6   ar
    19     6     7    1
    20     6     8   ar
    21     8     9   ar
    22     9    10   ar
    23    10    11   ar
    24    11    12   ar
    25    12    13    1
    26    12    14   ar
    27    14    15   ar
    28    15    16   ar
    29    30    22    1
    30    16     5   ar
    31    31    22    1
    32    16    10   ar
    33    29    24    1
    34    19    20    1
    35     3     4    1
@<TRIPOS>MOLECULE
*****
 31 35 0 0 0
SMALL
GASTEIGER

@<TRIPOS>ATOM
      1 C         144.9004  139.9726  164.1561 C.3     1  UNL1        0.0212
      2 C         143.8221  138.9958  164.5212 C.3     1  UNL1        0.0705
      3 N         142.9203  138.4422  163.4580 N.pl3   1  UNL1       -0.3322
      4 H         143.2934  137.8855  162.7369 H       1  UNL1        0.1468
      5 C         141.4499  138.7370  163.4936 C.ar    1  UNL1        0.0754
      6 C         140.5094  137.7810  164.1654 C.ar    1  UNL1        0.1722
      7 F         141.0391  136.5302  164.8017 F       1  UNL1       -0.2012
      8 C         139.0391  138.0759  164.2009 C.ar    1  UNL1        0.1296
      9 N         138.5094  139.3267  163.5646 N.ar    1  UNL1       -0.2414
     10 C         139.4499  140.2826  162.8928 C.ar    1  UNL1        0.0835
     11 C         138.9202  141.5335  162.2565 C.ar    1  UNL1        0.0305
     12 C         139.8608  142.4894  161.5846 C.ar    1  UNL1        0.0592
     13 CL        139.3310  143.7402  160.9483 Cl      1  UNL1       -0.0822
     14 C         141.3311  142.1946  161.5491 C.ar    1  UNL1        0.0115
     15 C         141.8609  140.9438  162.1854 C.ar    1  UNL1        0.0037
     16 C         140.9202  139.9878  162.8572 C.ar    1  UNL1        0.0331
     17 C         143.6457  138.5725  165.9493 C.3     1  UNL1        0.0365
     18 C         142.6676  139.2926  166.8295 C.3     1  UNL1        0.0703
     19 N         142.6606  140.7920  166.8734 N.3     1  UNL1       -0.2974
     20 H         143.5335  141.1031  166.4470 H       1  UNL1        0.1232
     21 C         141.5561  141.5567  166.2062 C.3     1  UNL1        0.0685
     22 C         141.8762  142.7588  165.3679 C.3     1  UNL1        0.0145
     23 C         140.7795  143.6886  164.9404 C.3     1  UNL1        0.0013
     24 C         141.0996  144.8906  164.1022 C.3     1  UNL1        0.0000
     25 C         142.5164  145.1628  163.6915 C.3     1  UNL1        0.0000
     26 C         143.6130  144.2330  164.1190 C.3     1  UNL1        0.0000
     27 C         140.8139  143.0367  165.3609 C.3     1  UNL1        0.0000
     28 C         139.3628  143.4163  165.3512 C.3     1  UNL1        0.0000
     29 C         139.6829  144.6183  164.5129 C.3     1  UNL1        0.0000
     30 C         140.4594  142.4866  165.7787 C.3     1  UNL1        0.0013
     31 C         143.2929  143.0310  164.9572 C.3     1  UNL1        0.0013
@<TRIPOS>BOND
     1     1     2    1
     2     2    17    1
     3    17    18    1
     4    18    19    1
     5    19    21    1
     6    21    22    1
     7    22    23    1
     8    23    24    1
     9    24    25    1
    10    25    26    1
    11    26    27    1
    12    27    28    1
    13    28    29    1
    14    28    30    1
    15    26    31    1
    16     2     3    1
    17     3     5    1
    18     5     6   ar
    19     6     7    1
    20     6     8   ar
    21     8     9   ar
    22     9    10   ar
    23    10    11   ar
    24    11    12   ar
    25    12    13    1
    26    12    14   ar
    27    14    15   ar
    28    15    16   ar
    29    30    22    1
    30    16     5   ar
    31    31    22    1
    32    16    10   ar
    33    29    24    1
    34    19    20    1
    35     3     4    1
@<TRIPOS>MOLECULE
*****
 31 35 0 0 0
SMALL
GASTEIGER

@<TRIPOS>ATOM
      1 C         143.6484  140.8768  161.2079 C.3     1  UNL1        0.0212
      2 C         143.9339  140.0652  162.4367 C.3     1  UNL1        0.0705
      3 N         144.1960  140.7514  163.7445 N.pl3   1  UNL1       -0.3322
      4 H         145.0243  141.2682  163.8720 H       1  UNL1        0.1468
      5 C         143.1962  140.6504  164.8582 C.ar    1  UNL1        0.0754
      6 C         143.2732  139.5141  165.8344 C.ar    1  UNL1        0.1722
      7 F         144.3500  138.4789  165.6970 F       1  UNL1       -0.2012
      8 C         142.2733  139.4131  166.9480 C.ar    1  UNL1        0.1296
      9 N         141.1965  140.4483  167.0853 N.ar    1  UNL1       -0.2414
     10 C         141.1196  141.5845  166.1092 C.ar    1  UNL1        0.0835
     11 C         140.0428  142.6197  166.2465 C.ar    1  UNL1        0.0305
     12 C         139.9658  143.7559  165.2703 C.ar    1  UNL1        0.0592
     13 CL        138.8890  144.7911  165.4077 Cl      1  UNL1       -0.0822
     14 C         140.9656  143.8570  164.1567 C.ar    1  UNL1        0.0115
     15 C         142.0424  142.8218  164.0193 C.ar    1  UNL1        0.0037
     16 C         142.1194  141.6856  164.9956 C.ar    1  UNL1        0.0331
     17 C         143.9572  138.5675  162.3577 C.3     1  UNL1        0.0365
     18 C         143.0274  137.8512  161.4237 C.3     1  UNL1        0.0703
     19 N         141.7422  137.2754  161.9402 N.3     1  UNL1       -0.2974
     20 H         141.8671  136.2638  161.9783 H       1  UNL1        0.1232
     21 C         141.2161  137.6976  163.2799 C.3     1  UNL1        0.0685
     22 C         140.2103  138.8064  163.3752 C.3     1  UNL1        0.0145
     23 C         139.2203  138.8261  164.5019 C.3     1  UNL1        0.0013
     24 C         138.2146  139.9349  164.5972 C.3     1  UNL1        0.0000
     25 C         138.1989  141.0239  163.5658 C.3     1  UNL1        0.0000
     26 C         139.1889  141.0042  162.4392 C.3     1  UNL1        0.0000
     27 C         139.7985  138.3544  164.2873 C.3     1  UNL1        0.0000
     28 C         139.2360  137.7370  165.5333 C.3     1  UNL1        0.0000
     29 C         138.2303  138.8458  165.6286 C.3     1  UNL1        0.0000
     30 C         140.2260  137.7173  164.4066 C.3     1  UNL1        0.0013
     31 C         140.1946  139.8955  162.3439 C.3     1  UNL1        0.0013
@<TRIPOS>BOND
     1     1     2    1
     2     2    17    1
     3    17    18    1
     4    18    19    1
     5    19    21    1
     6    21    22    1
     7    22    23    1
     8    23    24    1
     9    24    25    1
    10    25    26    1
    11    26    27    1
    12    27    28    1
    13    28    29    1
    14    28    30    1
    15    26    31    1
    16     2     3    1
    17     3     5    1
    18     5     6   ar
    19     6     7    1
    20     6     8   ar
    21     8     9   ar
    22     9    10   ar
    23    10    11   ar
    24    11    12   ar
    25    12    13    1
    26    12    14   ar
    27    14    15   ar
    28    15    16   ar
    29    30    22    1
    30    16     5   ar
    31    31    22    1
    32    16    10   ar
    33    29    24    1
    34    19    20    1
    35     3     4    1
@<TRIPOS>MOLECULE
*****
 31 35 0 0 0
SMALL
GASTEIGER

@<TRIPOS>ATOM
      1 C         137.3064  138.2741  167.2832 C.3     1  UNL1        0.0212
      2 C         138.3277  139.2357  166.7518 C.3     1  UNL1        0.0705
      3 N         138.1357  139.8644  165.4035 N.pl3   1  UNL1       -0.3322
      4 H         137.3592  140.4465  165.2378 H       1  UNL1        0.1468
      5 C         139.1269  139.6063  164.3076 C.ar    1  UNL1        0.0754
      6 C         139.2879  138.2221  163.7527 C.ar    1  UNL1        0.1722
      7 F         138.4576  137.0959  164.2936 F       1  UNL1       -0.2012
      8 C         140.2791  137.9640  162.6568 C.ar    1  UNL1        0.1296
      9 N         141.1093  139.0901  162.1160 N.ar    1  UNL1       -0.2414
     10 C         140.9484  140.4743  162.6709 C.ar    1  UNL1        0.0835
     11 C         141.7786  141.6004  162.1300 C.ar    1  UNL1        0.0305
     12 C         141.6177  142.9846  162.6850 C.ar    1  UNL1        0.0592
     13 CL        142.4479  144.1108  162.1441 Cl      1  UNL1       -0.0822
     14 C         140.6264  143.2428  163.7809 C.ar    1  UNL1        0.0115
     15 C         139.7962  142.1167  164.3217 C.ar    1  UNL1        0.0037
     16 C         139.9572  140.7324  163.7667 C.ar    1  UNL1        0.0331
     17 C         139.5408  139.5686  167.5687 C.3     1  UNL1        0.0365
     18 C         139.8696  140.9998  167.8742 C.3     1  UNL1        0.0703
     19 N         141.1503  141.5987  167.3728 N.3     1  UNL1       -0.2974
     20 H         141.5302  142.1613  168.1341 H       1  UNL1        0.1232
     21 C         142.2594  140.7077  166.8977 C.3     1  UNL1        0.0685
     22 C         143.2547  141.2172  165.8977 C.3     1  UNL1        0.0145
     23 C         143.8562  140.2793  164.8935 C.3     1  UNL1        0.0013
     24 C         144.8515  140.7888  163.8936 C.3     1  UNL1        0.0000
     25 C         145.2452  142.2362  163.8979 C.3     1  UNL1        0.0000
     26 C         144.6438  143.1741  164.9022 C.3     1  UNL1        0.0000
     27 C         143.3425  140.2090  165.4714 C.3     1  UNL1        0.0000
     28 C         143.4625  138.8319  164.8891 C.3     1  UNL1        0.0000
     29 C         144.4577  139.3414  163.8892 C.3     1  UNL1        0.0000
     30 C         142.8610  139.7698  165.8934 C.3     1  UNL1        0.0013
     31 C         143.6485  142.6646  165.9021 C.3     1  UNL1        0.0013
@<TRIPOS>BOND
     1     1     2    1
     2     2    17    1
     3    17    18    1
     4    18    19    1
     5    19    21    1
     6    21    22    1
     7    22    23    1
     8    23    24    1
     9    24    25    1
    10    25    26    1
    11    26    27    1
    12    27    28    1
    13    28    29    1
    14    28    30    1
    15    26    31    1
    16     2     3    1
    17     3     5    1
    18     5     6   ar
    19     6     7    1
    20     6     8   ar
    21     8     9   ar
    22     9    10   ar
    23    10    11   ar
    24    11    12   ar
    25    12    13    1
    26    12    14   ar
    27    14    15   ar
    28    15    16   ar
    29    30    22    1
    30    16     5   ar
    31    31    22    1
    32    16    10   ar
    33    29    24    1
    34    19    20    1
    35     3     4    1
@<TRIPOS>MOLECULE
*****
 31 35 0 0 0
SMALL
GASTEIGER

@<TRIPOS>ATOM
      1 C         140.0367  145.5293  161.8316 C.3     1  UNL1        0.0212
      2 C         139.8981  144.8906  163.1818 C.3     1  UNL1        0.0705
      3 N         141.0946  144.7630  164.0774 N.pl3   1  UNL1       -0.3322
      4 H         141.3897  145.5316  164.6172 H       1  UNL1        0.1468
      5 C         141.8416  143.4642  164.1506 C.ar    1  UNL1        0.0754
      6 C         142.8222  143.1014  163.0751 C.ar    1  UNL1        0.1722
      7 F         143.0559  144.0372  161.9264 F       1  UNL1       -0.2012
      8 C         143.5691  141.8026  163.1483 C.ar    1  UNL1        0.1296
      9 N         143.3354  140.8668  164.2970 N.ar    1  UNL1       -0.2414
     10 C         142.3548  141.2296  165.3725 C.ar    1  UNL1        0.0835
     11 C         142.1211  140.2937  166.5212 C.ar    1  UNL1        0.0305
     12 C         141.1405  140.6566  167.5967 C.ar    1  UNL1        0.0592
     13 CL        140.9068  139.7207  168.7454 Cl      1  UNL1       -0.0822
     14 C         140.3935  141.9554  167.5235 C.ar    1  UNL1        0.0115
     15 C         140.6272  142.8913  166.3748 C.ar    1  UNL1        0.0037
     16 C         141.6079  142.5283  165.2993 C.ar    1  UNL1        0.0331
     17 C         138.5632  144.3796  163.6363 C.3     1  UNL1        0.0365
     18 C         137.7250  143.5463  162.7127 C.3     1  UNL1        0.0703
     19 N         137.5010  142.0930  163.0091 N.3     1  UNL1       -0.2974
     20 H         137.7981  141.5746  162.1825 H       1  UNL1        0.1232
     21 C         138.1767  141.4548  164.1864 C.3     1  UNL1        0.0685
     22 C         139.0254  140.2332  163.9927 C.3     1  UNL1        0.0145
     23 C         138.9410  139.0987  164.9703 C.3     1  UNL1        0.0013
     24 C         139.7897  137.8771  164.7765 C.3     1  UNL1        0.0000
     25 C         140.7228  137.7902  163.6053 C.3     1  UNL1        0.0000
     26 C         140.8072  138.9247  162.6278 C.3     1  UNL1        0.0000
     27 C         138.5954  139.7905  164.9009 C.3     1  UNL1        0.0000
     28 C         138.0079  139.1856  166.1415 C.3     1  UNL1        0.0000
     29 C         138.8566  137.9641  165.9478 C.3     1  UNL1        0.0000
     30 C         138.0924  140.3202  165.1640 C.3     1  UNL1        0.0013
     31 C         139.9585  140.1463  162.8215 C.3     1  UNL1        0.0013
@<TRIPOS>BOND
     1     1     2    1
     2     2    17    1
     3    17    18    1
     4    18    19    1
     5    19    21    1
     6    21    22    1
     7    22    23    1
     8    23    24    1
     9    24    25    1
    10    25    26    1
    11    26    27    1
    12    27    28    1
    13    28    29    1
    14    28    30    1
    15    26    31    1
    16     2     3    1
    17     3     5    1
    18     5     6   ar
    19     6     7    1
    20     6     8   ar
    21     8     9   ar
    22     9    10   ar
    23    10    11   ar
    24    11    12   ar
    25    12    13    1
    26    12    14   ar
    27    14    15   ar
    28    15    16   ar
    29    30    22    1
    30    16     5   ar
    31    31    22    1
    32    16    10   ar
    33    29    24    1
    34    19    20    1
    35     3     4    1
@<TRIPOS>MOLECULE
*****
 31 35 0 0 0
SMALL
GASTEIGER

@<TRIPOS>ATOM
      1 C         145.8071  141.9068  163.3416 C.3     1  UNL1        0.0212
      2 C         144.6708  142.2841  164.2453 C.3     1  UNL1        0.0705
      3 N         144.1076  141.2761  165.2028 N.pl3   1  UNL1       -0.3322
      4 H         144.6501  140.5023  165.4785 H       1  UNL1        0.1468
      5 C         142.7176  141.4472  165.7402 C.ar    1  UNL1        0.0754
      6 C         142.5014  142.1354  167.0554 C.ar    1  UNL1        0.1722
      7 F         143.6752  142.6525  167.8331 F       1  UNL1       -0.2012
      8 C         141.1115  142.3065  167.5927 C.ar    1  UNL1        0.1296
      9 N         139.9378  141.7894  166.8149 N.ar    1  UNL1       -0.2414
     10 C         140.1539  141.1013  165.4998 C.ar    1  UNL1        0.0835
     11 C         138.9802  140.5842  164.7220 C.ar    1  UNL1        0.0305
     12 C         139.1963  139.8960  163.4068 C.ar    1  UNL1        0.0592
     13 CL        138.0226  139.3790  162.6291 Cl      1  UNL1       -0.0822
     14 C         140.5863  139.7249  162.8694 C.ar    1  UNL1        0.0115
     15 C         141.7601  140.2420  163.6472 C.ar    1  UNL1        0.0037
     16 C         141.5438  140.9302  164.9624 C.ar    1  UNL1        0.0331
     17 C         144.0978  143.6693  164.1915 C.3     1  UNL1        0.0365
     18 C         144.0167  144.3970  162.8824 C.3     1  UNL1        0.0703
     19 N         142.7423  145.0789  162.4810 N.3     1  UNL1       -0.2974
     20 H         142.4829  144.7045  161.5684 H       1  UNL1        0.1232
     21 C         141.5274  144.9721  163.3542 C.3     1  UNL1        0.0685
     22 C         140.3034  144.2644  162.8530 C.3     1  UNL1        0.0145
     23 C         139.0758  144.1898  163.7116 C.3     1  UNL1        0.0013
     24 C         137.8519  143.4821  163.2104 C.3     1  UNL1        0.0000
     25 C         137.8556  142.8491  161.8505 C.3     1  UNL1        0.0000
     26 C         139.0832  142.9237  160.9919 C.3     1  UNL1        0.0000
     27 C         139.7830  144.5004  163.7907 C.3     1  UNL1        0.0000
     28 C         139.0720  144.8228  165.0715 C.3     1  UNL1        0.0000
     29 C         137.8482  144.1151  164.5703 C.3     1  UNL1        0.0000
     30 C         140.2997  144.8974  164.2128 C.3     1  UNL1        0.0013
     31 C         140.3071  143.6314  161.4931 C.3     1  UNL1        0.0013
@<TRIPOS>BOND
     1     1     2    1
     2     2    17    1
     3    17    18    1
     4    18    19    1
     5    19    21    1
     6    21    22    1
     7    22    23    1
     8    23    24    1
     9    24    25    1
    10    25    26    1
    11    26    27    1
    12    27    28    1
    13    28    29    1
    14    28    30    1
    15    26    31    1
    16     2     3    1
    17     3     5    1
    18     5     6   ar
    19     6     7    1
    20     6     8   ar
    21     8     9   ar
    22     9    10   ar
    23    10    11   ar
    24    11    12   ar
    25    12    13    1
    26    12    14   ar
    27    14    15   ar
    28    15    16   ar
    29    30    22    1
    30    16     5   ar
    31    31    22    1
    32    16    10   ar
    33    29    24    1
    34    19    20    1
    35     3     4    1
