@<TRIPOS>MOLECULE
*****
 35 39 0 0 0
SMALL
GASTEIGER

@<TRIPOS>ATOM
      1 N         141.1196  140.1980  163.3005 N.ar    1  UNL1       -0.2802
      2 C         140.3585  141.2846  162.6007 C.ar    1  UNL1        0.1457
      3 N         140.1548  141.2211  161.1159 N.ar    1  UNL1       -0.2275
      4 C         140.7122  140.0708  160.3310 C.ar    1  UNL1        0.0940
      5 C         140.6712  139.7402  158.8685 C.ar    1  UNL1        0.0263
      6 C         141.4071  138.4491  158.6645 C.ar    1  UNL1        0.0312
      7 S         141.9029  137.9818  160.0009 S.2     1  UNL1       -0.0807
      8 C         141.4734  138.9842  161.0309 C.ar    1  UNL1        0.1033
      9 C         141.6771  139.0478  162.5156 C.ar    1  UNL1        0.2694
     10 O         142.4383  137.9611  163.2155 O.2     1  UNL1       -0.2663
     11 C         139.8010  142.4350  163.3857 C.ar    1  UNL1        0.0303
     12 C         140.7008  143.5552  163.8164 C.ar    1  UNL1        0.0027
     13 C         140.1434  144.7054  164.6014 C.ar    1  UNL1        0.0001
     14 C         138.6861  144.7355  164.9555 C.ar    1  UNL1       -0.0003
     15 C         137.7863  143.6153  164.5248 C.ar    1  UNL1       -0.0042
     16 C         138.3437  142.4651  163.7399 C.ar    1  UNL1       -0.0189
     17 C         137.4440  141.3448  163.3091 C.3     1  UNL1        0.0311
     18 C         141.6114  137.7483  157.3541 C.ar    1  UNL1        0.0061
     19 C         142.9990  137.5339  156.8265 C.ar    1  UNL1        0.0014
     20 C         143.2032  136.8330  155.5161 C.ar    1  UNL1        0.0114
     21 C         142.0198  136.3466  154.7333 C.ar    1  UNL1        0.0577
     22 CL        142.2240  135.6457  153.4229 Cl      1  UNL1       -0.0822
     23 C         140.6321  136.5609  155.2609 C.ar    1  UNL1        0.0114
     24 C         140.4279  137.2618  156.5713 C.ar    1  UNL1        0.0014
     25 C         141.3234  140.2616  164.7853 C.3     1  UNL1        0.1118
     26 N         139.1357  139.7999  168.0642 N.3     1  UNL1       -0.2705
     27 C         138.0688  138.8713  167.5647 C.3     1  UNL1        0.0722
     28 C         138.0868  138.4062  166.1386 C.3     1  UNL1        0.0174
     29 C         139.1716  138.8696  165.2122 C.3     1  UNL1        0.0048
     30 C         140.2386  139.7982  165.7117 C.3     1  UNL1        0.0388
     31 C         140.2206  140.2633  167.1376 C.3     1  UNL1        0.0741
     32 C         139.1177  140.2650  169.4901 C.3     1  UNL1        0.1046
     33 C         140.1303  141.2640  169.9660 C.3     1  UNL1        0.1595
     34 C         140.5218  143.8303  169.8592 C.3     1  UNL1        0.1742
     35 O         139.7019  142.6590  170.3131 O.3     1  UNL1       -0.3496
@<TRIPOS>BOND
     1    34    35    1
     2    35    33    1
     3    33    32    1
     4    32    26    1
     5    26    27    1
     6    27    28    1
     7    28    29    1
     8    29    30    1
     9    30    25    1
    10    25     1    1
    11     1     2   ar
    12     2    11    1
    13    11    12   ar
    14    12    13   ar
    15    13    14   ar
    16    14    15   ar
    17    15    16   ar
    18    16    17    1
    19     2     3   ar
    20     3     4   ar
    21     4     5   ar
    22     5     6   ar
    23     6    18    1
    24    18    19   ar
    25    19    20   ar
    26    20    21   ar
    27    21    22    1
    28    21    23   ar
    29    23    24   ar
    30     6     7   ar
    31     7     8   ar
    32     8     9   ar
    33     9    10    2
    34    30    31    1
    35    31    26    1
    36     9     1   ar
    37    16    11   ar
    38     8     4   ar
    39    24    18   ar
@<TRIPOS>MOLECULE
*****
 35 39 0 0 0
SMALL
GASTEIGER

@<TRIPOS>ATOM
      1 N         141.1523  140.7883  162.1671 N.ar    1  UNL1       -0.2802
      2 C         140.9942  142.2763  162.0645 C.ar    1  UNL1        0.1457
      3 N         141.7626  143.0427  161.0289 N.ar    1  UNL1       -0.2275
      4 C         142.6892  142.3208  160.0961 C.ar    1  UNL1        0.0940
      5 C         143.5711  142.8051  158.9835 C.ar    1  UNL1        0.0263
      6 C         144.2743  141.6162  158.3986 C.ar    1  UNL1        0.0312
      7 S         143.8270  140.3972  159.1496 S.2     1  UNL1       -0.0807
      8 C         142.8474  140.8327  160.1987 C.ar    1  UNL1        0.1033
      9 C         142.0789  140.0665  161.2342 C.ar    1  UNL1        0.2694
     10 O         142.2371  138.5784  161.3369 O.2     1  UNL1       -0.2663
     11 C         140.0675  142.9982  162.9974 C.ar    1  UNL1        0.0303
     12 C         138.6269  143.1885  162.6252 C.ar    1  UNL1        0.0027
     13 C         137.7003  143.9104  163.5581 C.ar    1  UNL1        0.0001
     14 C         138.2142  144.4420  164.8632 C.ar    1  UNL1       -0.0003
     15 C         139.6548  144.2516  165.2354 C.ar    1  UNL1       -0.0042
     16 C         140.5814  143.5298  164.3025 C.ar    1  UNL1       -0.0189
     17 C         142.0220  143.3394  164.6747 C.3     1  UNL1        0.0311
     18 C         145.2530  141.6418  157.2621 C.ar    1  UNL1        0.0061
     19 C         146.4333  142.5662  157.3095 C.ar    1  UNL1        0.0014
     20 C         147.4119  142.5918  156.1729 C.ar    1  UNL1        0.0114
     21 C         147.2103  141.6930  154.9891 C.ar    1  UNL1        0.0577
     22 CL        148.1889  141.7186  153.8526 Cl      1  UNL1       -0.0822
     23 C         146.0299  140.7686  154.9417 C.ar    1  UNL1        0.0114
     24 C         145.0513  140.7431  156.0782 C.ar    1  UNL1        0.0014
     25 C         140.3838  140.0220  163.2027 C.3     1  UNL1        0.1118
     26 N         140.5790  139.9640  167.1661 N.3     1  UNL1       -0.2705
     27 C         142.0220  139.6110  167.3736 C.3     1  UNL1        0.0722
     28 C         142.9190  139.3949  166.1908 C.3     1  UNL1        0.0174
     29 C         142.3730  139.5319  164.8006 C.3     1  UNL1        0.0048
     30 C         140.9299  139.8850  164.5929 C.3     1  UNL1        0.0388
     31 C         140.0330  140.1010  165.7757 C.3     1  UNL1        0.0741
     32 C         139.6822  140.1800  168.3488 C.3     1  UNL1        0.1046
     33 C         139.9827  141.2760  169.3277 C.3     1  UNL1        0.1595
     34 C         140.5243  143.7699  169.8152 C.3     1  UNL1        0.1742
     35 O         140.2793  142.6613  168.8348 O.3     1  UNL1       -0.3496
@<TRIPOS>BOND
     1    34    35    1
     2    35    33    1
     3    33    32    1
     4    32    26    1
     5    26    27    1
     6    27    28    1
     7    28    29    1
     8    29    30    1
     9    30    25    1
    10    25     1    1
    11     1     2   ar
    12     2    11    1
    13    11    12   ar
    14    12    13   ar
    15    13    14   ar
    16    14    15   ar
    17    15    16   ar
    18    16    17    1
    19     2     3   ar
    20     3     4   ar
    21     4     5   ar
    22     5     6   ar
    23     6    18    1
    24    18    19   ar
    25    19    20   ar
    26    20    21   ar
    27    21    22    1
    28    21    23   ar
    29    23    24   ar
    30     6     7   ar
    31     7     8   ar
    32     8     9   ar
    33     9    10    2
    34    30    31    1
    35    31    26    1
    36     9     1   ar
    37    16    11   ar
    38     8     4   ar
    39    24    18   ar
@<TRIPOS>MOLECULE
*****
 35 39 0 0 0
SMALL
GASTEIGER

@<TRIPOS>ATOM
      1 N         141.7533  138.3069  163.2368 N.ar    1  UNL1       -0.2802
      2 C         140.2627  138.4311  163.1255 C.ar    1  UNL1        0.1457
      3 N         139.6134  138.4870  161.7743 N.ar    1  UNL1       -0.2275
      4 C         140.4550  138.4185  160.5346 C.ar    1  UNL1        0.0940
      5 C         140.1000  138.4500  159.0775 C.ar    1  UNL1        0.0263
      6 C         141.3713  138.3452  158.2884 C.ar    1  UNL1        0.0312
      7 S         142.5120  138.2490  159.2577 S.2     1  UNL1       -0.0807
      8 C         141.9457  138.2943  160.6459 C.ar    1  UNL1        0.1033
      9 C         142.5948  138.2385  161.9970 C.ar    1  UNL1        0.2694
     10 O         144.0855  138.1143  162.1084 O.2     1  UNL1       -0.2663
     11 C         139.4210  138.4996  164.3653 C.ar    1  UNL1        0.0303
     12 C         138.9694  137.2361  165.0359 C.ar    1  UNL1        0.0027
     13 C         138.1278  137.3045  166.2757 C.ar    1  UNL1        0.0001
     14 C         137.7379  138.6364  166.8449 C.ar    1  UNL1       -0.0003
     15 C         138.1895  139.8999  166.1743 C.ar    1  UNL1       -0.0042
     16 C         139.0311  139.8315  164.9345 C.ar    1  UNL1       -0.0189
     17 C         139.4828  141.0949  164.2639 C.3     1  UNL1        0.0311
     18 C         141.4824  138.3379  156.7925 C.ar    1  UNL1        0.0061
     19 C         140.8167  137.2550  155.9962 C.ar    1  UNL1        0.0014
     20 C         140.9278  137.2478  154.5004 C.ar    1  UNL1        0.0114
     21 C         141.7047  138.3234  153.8008 C.ar    1  UNL1        0.0577
     22 CL        141.8159  138.3161  152.3049 Cl      1  UNL1       -0.0822
     23 C         142.3705  139.4063  154.5970 C.ar    1  UNL1        0.0114
     24 C         142.2594  139.4135  156.0929 C.ar    1  UNL1        0.0014
     25 C         142.4025  138.2511  164.5879 C.3     1  UNL1        0.1118
     26 N         143.5651  141.9310  165.5136 N.3     1  UNL1       -0.2705
     27 C         143.0657  142.0397  166.9239 C.3     1  UNL1        0.0722
     28 C         142.3451  140.8855  167.5554 C.3     1  UNL1        0.0174
     29 C         142.1241  139.6227  166.7768 C.3     1  UNL1        0.0048
     30 C         142.6235  139.5139  165.3665 C.3     1  UNL1        0.0388
     31 C         143.3440  140.6680  164.7350 C.3     1  UNL1        0.0741
     32 C         144.2856  143.0851  164.8821 C.3     1  UNL1        0.1046
     33 C         143.7984  143.6526  163.5820 C.3     1  UNL1        0.1595
     34 C         144.9272  142.2167  161.7341 C.3     1  UNL1        0.1742
     35 O         144.6538  143.5552  162.3537 O.3     1  UNL1       -0.3496
@<TRIPOS>BOND
     1    34    35    1
     2    35    33    1
     3    33    32    1
     4    32    26    1
     5    26    27    1
     6    27    28    1
     7    28    29    1
     8    29    30    1
     9    30    25    1
    10    25     1    1
    11     1     2   ar
    12     2    11    1
    13    11    12   ar
    14    12    13   ar
    15    13    14   ar
    16    14    15   ar
    17    15    16   ar
    18    16    17    1
    19     2     3   ar
    20     3     4   ar
    21     4     5   ar
    22     5     6   ar
    23     6    18    1
    24    18    19   ar
    25    19    20   ar
    26    20    21   ar
    27    21    22    1
    28    21    23   ar
    29    23    24   ar
    30     6     7   ar
    31     7     8   ar
    32     8     9   ar
    33     9    10    2
    34    30    31    1
    35    31    26    1
    36     9     1   ar
    37    16    11   ar
    38     8     4   ar
    39    24    18   ar
@<TRIPOS>MOLECULE
*****
 35 39 0 0 0
SMALL
GASTEIGER

@<TRIPOS>ATOM
      1 N         140.4290  140.9164  161.2175 N.ar    1  UNL1       -0.2802
      2 C         140.6986  142.3561  161.5408 C.ar    1  UNL1        0.1457
      3 N         141.7900  143.0942  160.8235 N.ar    1  UNL1       -0.2275
      4 C         142.6116  142.3925  159.7831 C.ar    1  UNL1        0.0940
      5 C         143.7453  142.8573  158.9179 C.ar    1  UNL1        0.0263
      6 C         144.1762  141.7049  158.0599 C.ar    1  UNL1        0.0312
      7 S         143.3089  140.5278  158.3949 S.2     1  UNL1       -0.0807
      8 C         142.3419  140.9527  159.4599 C.ar    1  UNL1        0.1033
      9 C         141.2506  140.2147  160.1771 C.ar    1  UNL1        0.2694
     10 O         140.9809  138.7750  159.8539 O.2     1  UNL1       -0.2663
     11 C         139.8770  143.0578  162.5813 C.ar    1  UNL1        0.0303
     12 C         138.4808  143.5025  162.2601 C.ar    1  UNL1        0.0027
     13 C         137.6592  144.2042  163.3005 C.ar    1  UNL1        0.0001
     14 C         138.2337  144.4612  164.6621 C.ar    1  UNL1       -0.0003
     15 C         139.6298  144.0165  164.9833 C.ar    1  UNL1       -0.0042
     16 C         140.4514  143.3148  163.9428 C.ar    1  UNL1       -0.0189
     17 C         141.8476  142.8701  164.2639 C.3     1  UNL1        0.0311
     18 C         145.2807  141.7259  157.0451 C.ar    1  UNL1        0.0061
     19 C         145.1544  140.9258  155.7826 C.ar    1  UNL1        0.0014
     20 C         146.2589  140.9468  154.7678 C.ar    1  UNL1        0.0114
     21 C         147.4896  141.7678  155.0156 C.ar    1  UNL1        0.0577
     22 CL        148.5940  141.7888  154.0008 Cl      1  UNL1       -0.0822
     23 C         147.6159  142.5679  156.2781 C.ar    1  UNL1        0.0114
     24 C         146.5114  142.5468  157.2928 C.ar    1  UNL1        0.0014
     25 C         139.3377  140.1783  161.9347 C.3     1  UNL1        0.1118
     26 N         140.8873  139.2231  165.4612 N.3     1  UNL1       -0.2705
     27 C         139.6879  139.3767  166.3489 C.3     1  UNL1        0.0722
     28 C         138.3717  139.7976  165.7651 C.3     1  UNL1        0.0174
     29 C         138.2550  140.0648  164.2938 C.3     1  UNL1        0.0048
     30 C         139.4544  139.9111  163.4060 C.3     1  UNL1        0.0388
     31 C         140.7705  139.4903  163.9898 C.3     1  UNL1        0.0741
     32 C         142.2033  138.8022  166.0450 C.3     1  UNL1        0.1046
     33 C         143.4447  138.8449  165.2042 C.3     1  UNL1        0.1595
     34 C         145.0549  140.3236  163.8002 C.3     1  UNL1        0.1742
     35 O         144.1633  140.1446  164.9932 O.3     1  UNL1       -0.3496
@<TRIPOS>BOND
     1    34    35    1
     2    35    33    1
     3    33    32    1
     4    32    26    1
     5    26    27    1
     6    27    28    1
     7    28    29    1
     8    29    30    1
     9    30    25    1
    10    25     1    1
    11     1     2   ar
    12     2    11    1
    13    11    12   ar
    14    12    13   ar
    15    13    14   ar
    16    14    15   ar
    17    15    16   ar
    18    16    17    1
    19     2     3   ar
    20     3     4   ar
    21     4     5   ar
    22     5     6   ar
    23     6    18    1
    24    18    19   ar
    25    19    20   ar
    26    20    21   ar
    27    21    22    1
    28    21    23   ar
    29    23    24   ar
    30     6     7   ar
    31     7     8   ar
    32     8     9   ar
    33     9    10    2
    34    30    31    1
    35    31    26    1
    36     9     1   ar
    37    16    11   ar
    38     8     4   ar
    39    24    18   ar
@<TRIPOS>MOLECULE
*****
 35 39 0 0 0
SMALL
GASTEIGER

@<TRIPOS>ATOM
      1 N         139.1926  142.0054  161.7430 N.ar    1  UNL1       -0.2802
      2 C         140.0556  143.0270  162.4222 C.ar    1  UNL1        0.1457
      3 N         140.6267  144.1691  161.6351 N.ar    1  UNL1       -0.2275
      4 C         140.3346  144.2896  160.1687 C.ar    1  UNL1        0.0940
      5 C         140.7545  145.2985  159.1413 C.ar    1  UNL1        0.0263
      6 C         140.1509  144.9005  157.8271 C.ar    1  UNL1        0.0312
      7 S         139.3579  143.6455  158.0423 S.2     1  UNL1       -0.0807
      8 C         139.4715  143.2679  159.4895 C.ar    1  UNL1        0.1033
      9 C         138.9005  142.1258  160.2767 C.ar    1  UNL1        0.2694
     10 O         138.0373  141.1042  159.5975 O.2     1  UNL1       -0.2663
     11 C         140.3477  142.9065  163.8886 C.ar    1  UNL1        0.0303
     12 C         141.5683  142.1679  164.3520 C.ar    1  UNL1        0.0027
     13 C         141.8604  142.0475  165.8183 C.ar    1  UNL1        0.0001
     14 C         140.9319  142.6656  166.8213 C.ar    1  UNL1       -0.0003
     15 C         139.7113  143.4041  166.3579 C.ar    1  UNL1       -0.0042
     16 C         139.4192  143.5246  164.8915 C.ar    1  UNL1       -0.0189
     17 C         138.1987  144.2632  164.4280 C.3     1  UNL1        0.0311
     18 C         140.3119  145.6294  156.5260 C.ar    1  UNL1        0.0061
     19 C         141.2380  145.0926  155.4752 C.ar    1  UNL1        0.0014
     20 C         141.3989  145.8216  154.1741 C.ar    1  UNL1        0.0114
     21 C         140.6339  147.0873  153.9239 C.ar    1  UNL1        0.0577
     22 CL        140.7949  147.8162  152.6228 Cl      1  UNL1       -0.0822
     23 C         139.7078  147.6241  154.9747 C.ar    1  UNL1        0.0114
     24 C         139.5468  146.8951  156.2758 C.ar    1  UNL1        0.0014
     25 C         138.6215  140.8632  162.5301 C.3     1  UNL1        0.1118
     26 N         141.3516  138.0183  162.0802 N.3     1  UNL1       -0.2705
     27 C         141.1173  137.2024  163.3169 C.3     1  UNL1        0.0722
     28 C         140.0509  137.6069  164.2913 C.3     1  UNL1        0.0174
     29 C         139.2191  138.8271  164.0291 C.3     1  UNL1        0.0048
     30 C         139.4534  139.6430  162.7924 C.3     1  UNL1        0.0388
     31 C         140.5196  139.2386  161.8180 C.3     1  UNL1        0.0741
     32 C         142.4179  137.6138  161.1058 C.3     1  UNL1        0.1046
     33 C         143.8537  137.9465  161.3843 C.3     1  UNL1        0.1595
     34 C         144.1330  140.4897  161.8364 C.3     1  UNL1        0.1742
     35 O         144.4045  139.2837  160.9866 O.3     1  UNL1       -0.3496
@<TRIPOS>BOND
     1    34    35    1
     2    35    33    1
     3    33    32    1
     4    32    26    1
     5    26    27    1
     6    27    28    1
     7    28    29    1
     8    29    30    1
     9    30    25    1
    10    25     1    1
    11     1     2   ar
    12     2    11    1
    13    11    12   ar
    14    12    13   ar
    15    13    14   ar
    16    14    15   ar
    17    15    16   ar
    18    16    17    1
    19     2     3   ar
    20     3     4   ar
    21     4     5   ar
    22     5     6   ar
    23     6    18    1
    24    18    19   ar
    25    19    20   ar
    26    20    21   ar
    27    21    22    1
    28    21    23   ar
    29    23    24   ar
    30     6     7   ar
    31     7     8   ar
    32     8     9   ar
    33     9    10    2
    34    30    31    1
    35    31    26    1
    36     9     1   ar
    37    16    11   ar
    38     8     4   ar
    39    24    18   ar
@<TRIPOS>MOLECULE
*****
 35 39 0 0 0
SMALL
GASTEIGER

@<TRIPOS>ATOM
      1 N         140.2466  141.3044  161.0975 N.ar    1  UNL1       -0.2802
      2 C         140.8877  142.4968  161.7432 C.ar    1  UNL1        0.1457
      3 N         142.1470  143.0745  161.1683 N.ar    1  UNL1       -0.2275
      4 C         142.7650  142.4598  159.9476 C.ar    1  UNL1        0.0940
      5 C         143.9940  142.8079  159.1611 C.ar    1  UNL1        0.0263
      6 C         144.1123  141.8307  158.0294 C.ar    1  UNL1        0.0312
      7 S         142.9565  140.8785  158.1163 S.2     1  UNL1       -0.0807
      8 C         142.1238  141.2673  159.3019 C.ar    1  UNL1        0.1033
      9 C         140.8646  140.6896  159.8768 C.ar    1  UNL1        0.2694
     10 O         140.2234  139.4972  159.2311 O.2     1  UNL1       -0.2663
     11 C         140.2696  143.1116  162.9640 C.ar    1  UNL1        0.0303
     12 C         139.1465  144.0956  162.8214 C.ar    1  UNL1        0.0027
     13 C         138.5284  144.7103  164.0421 C.ar    1  UNL1        0.0001
     14 C         139.0335  144.3411  165.4053 C.ar    1  UNL1       -0.0003
     15 C         140.1567  143.3571  165.5479 C.ar    1  UNL1       -0.0042
     16 C         140.7747  142.7423  164.3273 C.ar    1  UNL1       -0.0189
     17 C         141.8979  141.7583  164.4698 C.3     1  UNL1        0.0311
     18 C         145.1961  141.8092  156.9926 C.ar    1  UNL1        0.0061
     19 C         144.9737  141.1003  155.6896 C.ar    1  UNL1        0.0014
     20 C         146.0576  141.0789  154.6529 C.ar    1  UNL1        0.0114
     21 C         147.3639  141.7665  154.9192 C.ar    1  UNL1        0.0577
     22 CL        148.4477  141.7451  153.8824 Cl      1  UNL1       -0.0822
     23 C         147.5863  142.4755  156.2222 C.ar    1  UNL1        0.0114
     24 C         146.5024  142.4968  157.2589 C.ar    1  UNL1        0.0014
     25 C         138.9873  140.7266  161.6725 C.3     1  UNL1        0.1118
     26 N         138.6424  138.8792  165.1679 N.3     1  UNL1       -0.2705
     27 C         139.2159  137.5337  164.8351 C.3     1  UNL1        0.0722
     28 C         139.7131  137.2525  163.4481 C.3     1  UNL1        0.0174
     29 C         139.6369  138.3168  162.3939 C.3     1  UNL1        0.0048
     30 C         139.0635  139.6624  162.7266 C.3     1  UNL1        0.0388
     31 C         138.5662  139.9435  164.1136 C.3     1  UNL1        0.0741
     32 C         138.1451  139.1603  166.5548 C.3     1  UNL1        0.1046
     33 C         139.0784  139.7199  167.5871 C.3     1  UNL1        0.1595
     34 C         139.1682  140.7318  169.9784 C.3     1  UNL1        0.1742
     35 O         138.7167  139.6511  169.0412 O.3     1  UNL1       -0.3496
@<TRIPOS>BOND
     1    34    35    1
     2    35    33    1
     3    33    32    1
     4    32    26    1
     5    26    27    1
     6    27    28    1
     7    28    29    1
     8    29    30    1
     9    30    25    1
    10    25     1    1
    11     1     2   ar
    12     2    11    1
    13    11    12   ar
    14    12    13   ar
    15    13    14   ar
    16    14    15   ar
    17    15    16   ar
    18    16    17    1
    19     2     3   ar
    20     3     4   ar
    21     4     5   ar
    22     5     6   ar
    23     6    18    1
    24    18    19   ar
    25    19    20   ar
    26    20    21   ar
    27    21    22    1
    28    21    23   ar
    29    23    24   ar
    30     6     7   ar
    31     7     8   ar
    32     8     9   ar
    33     9    10    2
    34    30    31    1
    35    31    26    1
    36     9     1   ar
    37    16    11   ar
    38     8     4   ar
    39    24    18   ar
@<TRIPOS>MOLECULE
*****
 35 39 0 0 0
SMALL
GASTEIGER

@<TRIPOS>ATOM
      1 N         139.9092  141.8801  162.7562 N.ar    1  UNL1       -0.2802
      2 C         141.3653  141.8971  162.3968 C.ar    1  UNL1        0.1457
      3 N         141.8214  141.3247  161.0873 N.ar    1  UNL1       -0.2275
      4 C         140.8212  140.7354  160.1375 C.ar    1  UNL1        0.0940
      5 C         140.9724  140.1028  158.7859 C.ar    1  UNL1        0.0263
      6 C         139.6096  139.6948  158.3100 C.ar    1  UNL1        0.0312
      7 S         138.6162  140.0753  159.3675 S.2     1  UNL1       -0.0807
      8 C         139.3650  140.7184  160.4970 C.ar    1  UNL1        0.1033
      9 C         138.9090  141.2908  161.8064 C.ar    1  UNL1        0.2694
     10 O         137.4528  141.2738  162.1659 O.2     1  UNL1       -0.2663
     11 C         142.3656  142.4864  163.3467 C.ar    1  UNL1        0.0303
     12 C         142.7237  143.9400  163.2521 C.ar    1  UNL1        0.0027
     13 C         143.7239  144.5293  164.2020 C.ar    1  UNL1        0.0001
     14 C         144.3660  143.6651  165.2465 C.ar    1  UNL1       -0.0003
     15 C         144.0078  142.2115  165.3410 C.ar    1  UNL1       -0.0042
     16 C         143.0076  141.6222  164.3912 C.ar    1  UNL1       -0.0189
     17 C         142.6494  140.1686  164.4857 C.3     1  UNL1        0.0311
     18 C         139.2954  139.0241  157.0056 C.ar    1  UNL1        0.0061
     19 C         138.5689  139.7772  155.9309 C.ar    1  UNL1        0.0014
     20 C         138.2547  139.1065  154.6265 C.ar    1  UNL1        0.0114
     21 C         138.6670  137.6826  154.3968 C.ar    1  UNL1        0.0577
     22 CL        138.3527  137.0119  153.0924 Cl      1  UNL1       -0.0822
     23 C         139.3934  136.9295  155.4715 C.ar    1  UNL1        0.0114
     24 C         139.7076  137.6003  156.7759 C.ar    1  UNL1        0.0014
     25 C         139.4532  142.4525  164.0657 C.3     1  UNL1        0.1118
     26 N         139.9366  141.2635  167.8210 N.3     1  UNL1       -0.2705
     27 C         139.3879  139.8693  167.7498 C.3     1  UNL1        0.0722
     28 C         138.8609  139.3361  166.4504 C.3     1  UNL1        0.0174
     29 C         138.8827  140.1971  165.2225 C.3     1  UNL1        0.0048
     30 C         139.4314  141.5914  165.2936 C.3     1  UNL1        0.0388
     31 C         139.9583  142.1245  166.5929 C.3     1  UNL1        0.0741
     32 C         140.4635  141.7966  169.1203 C.3     1  UNL1        0.1046
     33 C         140.7052  143.2678  169.2845 C.3     1  UNL1        0.1595
     34 C         142.9626  143.0925  170.5588 C.3     1  UNL1        0.1742
     35 O         141.6352  143.7604  170.3533 O.3     1  UNL1       -0.3496
@<TRIPOS>BOND
     1    34    35    1
     2    35    33    1
     3    33    32    1
     4    32    26    1
     5    26    27    1
     6    27    28    1
     7    28    29    1
     8    29    30    1
     9    30    25    1
    10    25     1    1
    11     1     2   ar
    12     2    11    1
    13    11    12   ar
    14    12    13   ar
    15    13    14   ar
    16    14    15   ar
    17    15    16   ar
    18    16    17    1
    19     2     3   ar
    20     3     4   ar
    21     4     5   ar
    22     5     6   ar
    23     6    18    1
    24    18    19   ar
    25    19    20   ar
    26    20    21   ar
    27    21    22    1
    28    21    23   ar
    29    23    24   ar
    30     6     7   ar
    31     7     8   ar
    32     8     9   ar
    33     9    10    2
    34    30    31    1
    35    31    26    1
    36     9     1   ar
    37    16    11   ar
    38     8     4   ar
    39    24    18   ar
@<TRIPOS>MOLECULE
*****
 35 39 0 0 0
SMALL
GASTEIGER

@<TRIPOS>ATOM
      1 N         143.1457  141.9353  162.1535 N.ar    1  UNL1       -0.2802
      2 C         142.3036  142.8192  163.0250 C.ar    1  UNL1        0.1457
      3 N         141.5140  143.9399  162.4162 N.ar    1  UNL1       -0.2275
      4 C         141.5665  144.1767  160.9360 C.ar    1  UNL1        0.0940
      5 C         140.9016  145.1952  160.0583 C.ar    1  UNL1        0.0263
      6 C         141.3327  144.9407  158.6443 C.ar    1  UNL1        0.0312
      7 S         142.2642  143.7650  158.6481 S.2     1  UNL1       -0.0807
      8 C         142.4087  143.2927  160.0645 C.ar    1  UNL1        0.1033
      9 C         143.1983  142.1721  160.6733 C.ar    1  UNL1        0.2694
     10 O         144.0404  141.2881  159.8018 O.2     1  UNL1       -0.2663
     11 C         142.2511  142.5824  164.5053 C.ar    1  UNL1        0.0303
     12 C         141.0378  141.9511  165.1213 C.ar    1  UNL1        0.0027
     13 C         140.9853  141.7143  166.6015 C.ar    1  UNL1        0.0001
     14 C         142.1460  142.1089  167.4658 C.ar    1  UNL1       -0.0003
     15 C         143.3593  142.7402  166.8499 C.ar    1  UNL1       -0.0042
     16 C         143.4118  142.9770  165.3696 C.ar    1  UNL1       -0.0189
     17 C         144.6251  143.6083  164.7536 C.3     1  UNL1        0.0311
     18 C         140.9072  145.7244  157.4382 C.ar    1  UNL1        0.0061
     19 C         139.7259  146.6451  157.5205 C.ar    1  UNL1        0.0014
     20 C         139.3004  147.4288  156.3143 C.ar    1  UNL1        0.0114
     21 C         140.0562  147.2918  155.0259 C.ar    1  UNL1        0.0577
     22 CL        139.6306  148.0756  153.8197 Cl      1  UNL1       -0.0822
     23 C         141.2375  146.3711  154.9436 C.ar    1  UNL1        0.0114
     24 C         141.6630  145.5875  156.1498 C.ar    1  UNL1        0.0014
     25 C         143.9354  140.8146  162.7623 C.3     1  UNL1        0.1118
     26 N         141.2919  138.0236  163.7483 N.3     1  UNL1       -0.2705
     27 C         141.8324  137.5771  165.0744 C.3     1  UNL1        0.0722
     28 C         143.0740  138.2098  165.6298 C.3     1  UNL1        0.0174
     29 C         143.7749  139.2889  164.8591 C.3     1  UNL1        0.0048
     30 C         143.2344  139.7355  163.5329 C.3     1  UNL1        0.0388
     31 C         141.9929  139.1028  162.9776 C.3     1  UNL1        0.0741
     32 C         140.0504  137.3909  163.1930 C.3     1  UNL1        0.1046
     33 C         138.7663  138.1651  163.1561 C.3     1  UNL1        0.1595
     34 C         138.3534  139.0806  165.5523 C.3     1  UNL1        0.1742
     35 O         138.5618  139.3235  164.0868 O.3     1  UNL1       -0.3496
@<TRIPOS>BOND
     1    34    35    1
     2    35    33    1
     3    33    32    1
     4    32    26    1
     5    26    27    1
     6    27    28    1
     7    28    29    1
     8    29    30    1
     9    30    25    1
    10    25     1    1
    11     1     2   ar
    12     2    11    1
    13    11    12   ar
    14    12    13   ar
    15    13    14   ar
    16    14    15   ar
    17    15    16   ar
    18    16    17    1
    19     2     3   ar
    20     3     4   ar
    21     4     5   ar
    22     5     6   ar
    23     6    18    1
    24    18    19   ar
    25    19    20   ar
    26    20    21   ar
    27    21    22    1
    28    21    23   ar
    29    23    24   ar
    30     6     7   ar
    31     7     8   ar
    32     8     9   ar
    33     9    10    2
    34    30    31    1
    35    31    26    1
    36     9     1   ar
    37    16    11   ar
    38     8     4   ar
    39    24    18   ar
@<TRIPOS>MOLECULE
*****
 35 39 0 0 0
SMALL
GASTEIGER

@<TRIPOS>ATOM
      1 N         142.7680  142.5354  163.0003 N.ar    1  UNL1       -0.2802
      2 C         141.5284  143.0300  162.3157 C.ar    1  UNL1        0.1457
      3 N         141.5125  143.2025  160.8257 N.ar    1  UNL1       -0.2275
      4 C         142.7363  142.8804  160.0204 C.ar    1  UNL1        0.0940
      5 C         143.0165  142.9511  158.5485 C.ar    1  UNL1        0.0263
      6 C         144.4293  142.5002  158.3234 C.ar    1  UNL1        0.0312
      7 S         145.0222  142.1508  159.6562 S.2     1  UNL1       -0.0807
      8 C         143.9759  142.3858  160.7050 C.ar    1  UNL1        0.1033
      9 C         143.9917  142.2133  162.1949 C.ar    1  UNL1        0.2694
     10 O         145.2314  141.7187  162.8796 O.2     1  UNL1       -0.2663
     11 C         140.3046  143.3521  163.1211 C.ar    1  UNL1        0.0303
     12 C         139.1605  142.3831  163.1671 C.ar    1  UNL1        0.0027
     13 C         137.9367  142.7052  163.9724 C.ar    1  UNL1        0.0001
     14 C         137.8570  143.9963  164.7318 C.ar    1  UNL1       -0.0003
     15 C         139.0011  144.9653  164.6858 C.ar    1  UNL1       -0.0042
     16 C         140.2249  144.6432  163.8805 C.ar    1  UNL1       -0.0189
     17 C         141.3690  145.6122  163.8345 C.3     1  UNL1        0.0311
     18 C         145.1267  142.4138  156.9982 C.ar    1  UNL1        0.0061
     19 C         144.3257  142.2966  155.7354 C.ar    1  UNL1        0.0014
     20 C         145.0233  142.2102  154.4102 C.ar    1  UNL1        0.0114
     21 C         146.5216  142.2410  154.3478 C.ar    1  UNL1        0.0577
     22 CL        147.2190  142.1546  153.0226 Cl      1  UNL1       -0.0822
     23 C         147.3226  142.3582  155.6106 C.ar    1  UNL1        0.0114
     24 C         146.6250  142.4446  156.9358 C.ar    1  UNL1        0.0014
     25 C         142.7839  142.3629  164.4903 C.3     1  UNL1        0.1118
     26 N         140.7036  139.0775  165.2829 N.3     1  UNL1       -0.2705
     27 C         139.8913  139.5331  166.4588 C.3     1  UNL1        0.0722
     28 C         140.0433  140.9320  166.9785 C.3     1  UNL1        0.0174
     29 C         141.0074  141.8752  166.3224 C.3     1  UNL1        0.0048
     30 C         141.8197  141.4197  165.1464 C.3     1  UNL1        0.0388
     31 C         141.6678  140.0208  164.6267 C.3     1  UNL1        0.0741
     32 C         140.5516  137.6786  164.7632 C.3     1  UNL1        0.1046
     33 C         141.2176  137.2787  163.4801 C.3     1  UNL1        0.1595
     34 C         139.2338  138.1767  162.0628 C.3     1  UNL1        0.1742
     35 O         140.4441  137.3004  162.1951 O.3     1  UNL1       -0.3496
@<TRIPOS>BOND
     1    34    35    1
     2    35    33    1
     3    33    32    1
     4    32    26    1
     5    26    27    1
     6    27    28    1
     7    28    29    1
     8    29    30    1
     9    30    25    1
    10    25     1    1
    11     1     2   ar
    12     2    11    1
    13    11    12   ar
    14    12    13   ar
    15    13    14   ar
    16    14    15   ar
    17    15    16   ar
    18    16    17    1
    19     2     3   ar
    20     3     4   ar
    21     4     5   ar
    22     5     6   ar
    23     6    18    1
    24    18    19   ar
    25    19    20   ar
    26    20    21   ar
    27    21    22    1
    28    21    23   ar
    29    23    24   ar
    30     6     7   ar
    31     7     8   ar
    32     8     9   ar
    33     9    10    2
    34    30    31    1
    35    31    26    1
    36     9     1   ar
    37    16    11   ar
    38     8     4   ar
    39    24    18   ar
