@<TRIPOS>MOLECULE
*****
 39 43 0 0 0
SMALL
GASTEIGER

@<TRIPOS>ATOM
      1 N         141.3173  143.0139  162.7469 N.pl3   1  UNL1       -0.1971
      2 C         141.5287  141.6848  162.0846 C.3     1  UNL1        0.1971
      3 C         142.3961  141.5840  160.8650 C.ar    1  UNL1        0.0522
      4 C         142.6075  140.2548  160.2027 C.ar    1  UNL1        0.0393
      5 C         143.4748  140.1541  158.9831 C.ar    1  UNL1        0.1453
      6 C         144.1309  141.3825  158.4258 C.ar    1  UNL1        0.0405
      7 C         143.9195  142.7117  159.0881 C.ar    1  UNL1        0.0400
      8 C         143.0521  142.8124  160.3076 C.ar    1  UNL1        0.1576
      9 N         142.8407  144.1416  160.9700 N.2     1  UNL1       -0.0758
     10 C         141.9733  144.2423  162.1896 C.cat   1  UNL1        0.3716
     11 N         141.7619  145.5715  162.8519 N.pl3   1  UNL1       -0.2512
     12 H         142.1925  146.3778  162.4861 H       1  UNL1        0.2412
     13 H         141.1926  145.6376  163.6524 H       1  UNL1        0.2412
     14 C         140.4499  143.1147  163.9665 C.3     1  UNL1        0.1343
     15 C         141.0399  142.8901  165.3272 C.3     1  UNL1        0.0342
     16 C         140.1743  142.9990  166.5473 C.3     1  UNL1        0.0031
     17 C         140.7643  142.7743  167.9080 C.3     1  UNL1        0.0001
     18 C         142.2201  142.4408  168.0485 C.3     1  UNL1        0.0000
     19 C         143.0857  142.3319  166.8283 C.3     1  UNL1        0.0001
     20 C         142.4956  142.5566  165.4676 C.3     1  UNL1        0.0031
     21 C         138.9924  143.4401  163.8255 C.3     1  UNL1        0.0468
     22 C         137.9631  142.3632  164.0010 C.3     1  UNL1        0.0885
     23 C         138.3814  138.7657  162.3784 C.3     1  UNL1        0.1148
     24 N         138.4613  139.8945  163.3630 N.am    1  UNL1       -0.2794
     25 C         137.8832  141.2344  163.0164 C.2     1  UNL1        0.2257
     26 O         137.2251  141.4456  161.6851 O.2     1  UNL1       -0.2749
     27 C         139.1194  139.6832  164.6944 C.3     1  UNL1        0.0754
     28 C         140.5921  139.4080  164.7677 C.3     1  UNL1        0.0198
     29 C         141.2502  139.1968  166.0990 C.3     1  UNL1        0.0017
     30 C         140.4356  139.2608  167.3568 C.3     1  UNL1        0.0001
     31 C         138.9629  139.5360  167.2835 C.3     1  UNL1        0.0017
     32 C         138.3048  139.7473  165.9522 C.3     1  UNL1        0.0198
     33 O         143.6862  138.8249  158.3208 O.3     1  UNL1       -0.4535
     34 C         142.6083  138.2361  157.4598 C.ar    1  UNL1        0.1453
     35 C         142.6415  136.7781  157.1086 C.ar    1  UNL1        0.0375
     36 C         141.5635  136.1894  156.2476 C.ar    1  UNL1        0.0031
     37 C         140.4524  137.0586  155.7377 C.ar    1  UNL1        0.0002
     38 C         140.4192  138.5165  156.0889 C.ar    1  UNL1        0.0031
     39 C         141.4972  139.1052  156.9499 C.ar    1  UNL1        0.0375
@<TRIPOS>BOND
     1    23    24    1
     2    24    25   am
     3    25    26    2
     4    25    22    1
     5    22    21    1
     6    14    21    1
     7    14    15    1
     8    15    16    1
     9    16    17    1
    10    17    18    1
    11    18    19    1
    12    19    20    1
    13    14     1    1
    14     1     2    1
    15     2     3    1
    16     3     4   ar
    17     4     5   ar
    18     5    33    1
    19    33    34    1
    20    34    35   ar
    21    35    36   ar
    22    36    37   ar
    23    37    38   ar
    24    38    39   ar
    25     5     6   ar
    26     6     7   ar
    27     7     8   ar
    28     8     9    1
    29     9    10    2
    30    10    11    1
    31    24    27    1
    32    27    28    1
    33    28    29    1
    34    29    30    1
    35    30    31    1
    36    31    32    1
    37    20    15    1
    38    10     1    1
    39    32    27    1
    40     8     3   ar
    41    39    34   ar
    42    11    12    1
    43    11    13    1
@<TRIPOS>MOLECULE
*****
 39 43 0 0 0
SMALL
GASTEIGER

@<TRIPOS>ATOM
      1 N         140.2001  139.7883  160.9306 N.pl3   1  UNL1       -0.1971
      2 C         141.3998  139.0629  160.3971 C.3     1  UNL1        0.1971
      3 C         141.3385  138.3985  159.0536 C.ar    1  UNL1        0.0522
      4 C         142.5381  137.6732  158.5202 C.ar    1  UNL1        0.0393
      5 C         142.4767  137.0088  157.1767 C.ar    1  UNL1        0.1453
      6 C         141.2157  137.0698  156.3668 C.ar    1  UNL1        0.0405
      7 C         140.0160  137.7952  156.9002 C.ar    1  UNL1        0.0400
      8 C         140.0774  138.4595  158.2436 C.ar    1  UNL1        0.1576
      9 N         138.8777  139.1849  158.7772 N.2     1  UNL1       -0.0758
     10 C         138.9391  139.8493  160.1206 C.cat   1  UNL1        0.3716
     11 N         137.7394  140.5747  160.6541 N.pl3   1  UNL1       -0.2512
     12 H         136.9117  140.6147  160.1225 H       1  UNL1        0.2412
     13 H         137.7797  141.0107  161.5359 H       1  UNL1        0.2412
     14 C         140.2615  140.4527  162.2740 C.3     1  UNL1        0.1343
     15 C         139.6925  139.7631  163.4785 C.3     1  UNL1        0.0342
     16 C         140.0107  138.3202  163.7367 C.3     1  UNL1        0.0031
     17 C         139.4418  137.6306  164.9411 C.3     1  UNL1        0.0001
     18 C         138.5544  138.3839  165.8873 C.3     1  UNL1        0.0000
     19 C         138.2362  139.8268  165.6291 C.3     1  UNL1        0.0001
     20 C         138.8052  140.5164  164.4246 C.3     1  UNL1        0.0031
     21 C         140.8918  141.8067  162.4130 C.3     1  UNL1        0.0468
     22 C         142.3578  141.9822  162.1486 C.3     1  UNL1        0.0885
     23 C         144.4026  143.7982  165.0245 C.3     1  UNL1        0.1148
     24 N         143.6265  142.7517  164.2813 N.am    1  UNL1       -0.2794
     25 C         143.1340  143.0288  162.8918 C.2     1  UNL1        0.2257
     26 O         143.4175  144.3524  162.2456 O.2     1  UNL1       -0.2749
     27 C         143.3429  141.4280  164.9276 C.3     1  UNL1        0.0754
     28 C         142.2078  141.2957  165.8991 C.3     1  UNL1        0.0198
     29 C         141.9242  139.9721  166.5453 C.3     1  UNL1        0.0017
     30 C         142.7757  138.7809  166.2201 C.3     1  UNL1        0.0001
     31 C         143.9109  138.9133  165.2486 C.3     1  UNL1        0.0017
     32 C         144.1945  140.2368  164.6023 C.3     1  UNL1        0.0198
     33 O         143.6764  136.2834  156.6432 O.3     1  UNL1       -0.4535
     34 C         143.5968  134.8138  156.3537 C.ar    1  UNL1        0.1453
     35 C         143.9646  133.8193  157.4148 C.ar    1  UNL1        0.0375
     36 C         143.8850  132.3497  157.1253 C.ar    1  UNL1        0.0031
     37 C         143.4375  131.8745  155.7747 C.ar    1  UNL1        0.0002
     38 C         143.0698  132.8689  154.7137 C.ar    1  UNL1        0.0031
     39 C         143.1494  134.3386  155.0032 C.ar    1  UNL1        0.0375
@<TRIPOS>BOND
     1    23    24    1
     2    24    25   am
     3    25    26    2
     4    25    22    1
     5    22    21    1
     6    14    21    1
     7    14    15    1
     8    15    16    1
     9    16    17    1
    10    17    18    1
    11    18    19    1
    12    19    20    1
    13    14     1    1
    14     1     2    1
    15     2     3    1
    16     3     4   ar
    17     4     5   ar
    18     5    33    1
    19    33    34    1
    20    34    35   ar
    21    35    36   ar
    22    36    37   ar
    23    37    38   ar
    24    38    39   ar
    25     5     6   ar
    26     6     7   ar
    27     7     8   ar
    28     8     9    1
    29     9    10    2
    30    10    11    1
    31    24    27    1
    32    27    28    1
    33    28    29    1
    34    29    30    1
    35    30    31    1
    36    31    32    1
    37    20    15    1
    38    10     1    1
    39    32    27    1
    40     8     3   ar
    41    39    34   ar
    42    11    12    1
    43    11    13    1
@<TRIPOS>MOLECULE
*****
 39 43 0 0 0
SMALL
GASTEIGER

@<TRIPOS>ATOM
      1 N         143.3152  140.3645  158.9519 N.pl3   1  UNL1       -0.1971
      2 C         142.7241  138.9915  158.8284 C.3     1  UNL1        0.1971
      3 C         143.0358  138.1458  157.6293 C.ar    1  UNL1        0.0522
      4 C         142.4447  136.7727  157.5059 C.ar    1  UNL1        0.0393
      5 C         142.7564  135.9271  156.3068 C.ar    1  UNL1        0.1453
      6 C         143.6592  136.4545  155.2313 C.ar    1  UNL1        0.0405
      7 C         144.2503  137.8275  155.3548 C.ar    1  UNL1        0.0400
      8 C         143.9386  138.6732  156.5538 C.ar    1  UNL1        0.1576
      9 N         144.5298  140.0463  156.6773 N.2     1  UNL1       -0.0758
     10 C         144.2180  140.8919  157.8763 C.cat   1  UNL1        0.3716
     11 N         144.8092  142.2650  157.9999 N.pl3   1  UNL1       -0.2512
     12 H         145.4017  142.6112  157.2940 H       1  UNL1        0.2412
     13 H         144.6046  142.8201  158.7869 H       1  UNL1        0.2412
     14 C         143.0035  141.2103  160.1509 C.3     1  UNL1        0.1343
     15 C         143.7772  141.0231  161.4223 C.3     1  UNL1        0.0342
     16 C         143.4131  139.9152  162.3657 C.3     1  UNL1        0.0031
     17 C         144.1867  139.7281  163.6370 C.3     1  UNL1        0.0001
     18 C         145.3245  140.6489  163.9651 C.3     1  UNL1        0.0000
     19 C         145.6886  141.7568  163.0217 C.3     1  UNL1        0.0001
     20 C         144.9149  141.9439  161.7503 C.3     1  UNL1        0.0031
     21 C         141.9182  142.2431  160.0785 C.3     1  UNL1        0.0468
     22 C         142.2716  143.6996  160.0200 C.3     1  UNL1        0.0885
     23 C         139.8815  146.1779  161.9937 C.3     1  UNL1        0.1148
     24 N         140.9280  145.1404  161.7138 N.am    1  UNL1       -0.2794
     25 C         141.2251  144.7372  160.2999 C.2     1  UNL1        0.2257
     26 O         140.4758  145.3716  159.1660 O.2     1  UNL1       -0.2749
     27 C         141.6774  144.5060  162.8479 C.3     1  UNL1        0.0754
     28 C         141.1231  143.2875  163.5246 C.3     1  UNL1        0.0198
     29 C         141.8724  142.6531  164.6586 C.3     1  UNL1        0.0017
     30 C         143.1761  143.2373  165.1159 C.3     1  UNL1        0.0001
     31 C         143.7304  144.4558  164.4392 C.3     1  UNL1        0.0017
     32 C         142.9811  145.0902  163.3052 C.3     1  UNL1        0.0198
     33 O         142.1652  134.5540  156.1833 O.3     1  UNL1       -0.4535
     34 C         142.9448  133.3577  156.6430 C.ar    1  UNL1        0.1453
     35 C         144.1834  133.5418  157.4689 C.ar    1  UNL1        0.0375
     36 C         144.9629  132.3455  157.9286 C.ar    1  UNL1        0.0031
     37 C         144.5038  130.9652  157.5624 C.ar    1  UNL1        0.0002
     38 C         143.2653  130.7812  156.7366 C.ar    1  UNL1        0.0031
     39 C         142.4857  131.9774  156.2769 C.ar    1  UNL1        0.0375
@<TRIPOS>BOND
     1    23    24    1
     2    24    25   am
     3    25    26    2
     4    25    22    1
     5    22    21    1
     6    14    21    1
     7    14    15    1
     8    15    16    1
     9    16    17    1
    10    17    18    1
    11    18    19    1
    12    19    20    1
    13    14     1    1
    14     1     2    1
    15     2     3    1
    16     3     4   ar
    17     4     5   ar
    18     5    33    1
    19    33    34    1
    20    34    35   ar
    21    35    36   ar
    22    36    37   ar
    23    37    38   ar
    24    38    39   ar
    25     5     6   ar
    26     6     7   ar
    27     7     8   ar
    28     8     9    1
    29     9    10    2
    30    10    11    1
    31    24    27    1
    32    27    28    1
    33    28    29    1
    34    29    30    1
    35    30    31    1
    36    31    32    1
    37    20    15    1
    38    10     1    1
    39    32    27    1
    40     8     3   ar
    41    39    34   ar
    42    11    12    1
    43    11    13    1
@<TRIPOS>MOLECULE
*****
 39 43 0 0 0
SMALL
GASTEIGER

@<TRIPOS>ATOM
      1 N         140.1585  140.4091  162.6289 N.pl3   1  UNL1       -0.1971
      2 C         140.4309  140.8038  164.0501 C.3     1  UNL1        0.1971
      3 C         139.6876  140.1370  165.1695 C.ar    1  UNL1        0.0522
      4 C         139.9600  140.5317  166.5907 C.ar    1  UNL1        0.0393
      5 C         139.2167  139.8649  167.7099 C.ar    1  UNL1        0.1453
      6 C         138.2008  138.8034  167.4079 C.ar    1  UNL1        0.0405
      7 C         137.9283  138.4087  165.9867 C.ar    1  UNL1        0.0400
      8 C         138.6717  139.0755  164.8675 C.ar    1  UNL1        0.1576
      9 N         138.3992  138.6808  163.4462 N.2     1  UNL1       -0.0758
     10 C         139.1426  139.3476  162.3270 C.cat   1  UNL1        0.3716
     11 N         138.8701  138.9528  160.9057 N.pl3   1  UNL1       -0.2512
     12 H         138.2034  138.2561  160.7074 H       1  UNL1        0.2412
     13 H         139.3580  139.3905  160.1711 H       1  UNL1        0.2412
     14 C         140.9018  141.0759  161.5096 C.3     1  UNL1        0.1343
     15 C         140.7582  142.5526  161.2888 C.3     1  UNL1        0.0342
     16 C         139.8003  143.3465  162.1266 C.3     1  UNL1        0.0031
     17 C         139.6567  144.8232  161.9058 C.3     1  UNL1        0.0001
     18 C         140.4710  145.5060  160.8472 C.3     1  UNL1        0.0000
     19 C         141.4290  144.7120  160.0094 C.3     1  UNL1        0.0001
     20 C         141.5726  143.2353  160.2302 C.3     1  UNL1        0.0031
     21 C         141.7888  140.2660  160.6111 C.3     1  UNL1        0.0468
     22 C         143.2786  140.3279  160.7739 C.3     1  UNL1        0.0885
     23 C         144.9673  139.6418  164.2992 C.3     1  UNL1        0.1148
     24 N         144.3068  140.3596  163.1596 N.am    1  UNL1       -0.2794
     25 C         143.9391  139.6101  161.9134 C.2     1  UNL1        0.2257
     26 O         144.2319  138.1429  161.8068 O.2     1  UNL1       -0.2749
     27 C         144.0140  141.8269  163.2664 C.3     1  UNL1        0.0754
     28 C         143.0664  142.3282  164.3155 C.3     1  UNL1        0.0198
     29 C         142.7736  143.7955  164.4223 C.3     1  UNL1        0.0017
     30 C         143.4284  144.7614  163.4799 C.3     1  UNL1        0.0001
     31 C         144.3759  144.2601  162.4307 C.3     1  UNL1        0.0017
     32 C         144.6688  142.7929  162.3239 C.3     1  UNL1        0.0198
     33 O         139.4891  140.2597  169.1312 O.3     1  UNL1       -0.4535
     34 C         140.7208  141.0467  169.4681 C.ar    1  UNL1        0.1453
     35 C         140.6277  142.5276  169.6885 C.ar    1  UNL1        0.0375
     36 C         141.8594  143.3146  170.0253 C.ar    1  UNL1        0.0031
     37 C         143.1843  142.6208  170.1417 C.ar    1  UNL1        0.0002
     38 C         143.2774  141.1401  169.9213 C.ar    1  UNL1        0.0031
     39 C         142.0456  140.3530  169.5845 C.ar    1  UNL1        0.0375
@<TRIPOS>BOND
     1    23    24    1
     2    24    25   am
     3    25    26    2
     4    25    22    1
     5    22    21    1
     6    14    21    1
     7    14    15    1
     8    15    16    1
     9    16    17    1
    10    17    18    1
    11    18    19    1
    12    19    20    1
    13    14     1    1
    14     1     2    1
    15     2     3    1
    16     3     4   ar
    17     4     5   ar
    18     5    33    1
    19    33    34    1
    20    34    35   ar
    21    35    36   ar
    22    36    37   ar
    23    37    38   ar
    24    38    39   ar
    25     5     6   ar
    26     6     7   ar
    27     7     8   ar
    28     8     9    1
    29     9    10    2
    30    10    11    1
    31    24    27    1
    32    27    28    1
    33    28    29    1
    34    29    30    1
    35    30    31    1
    36    31    32    1
    37    20    15    1
    38    10     1    1
    39    32    27    1
    40     8     3   ar
    41    39    34   ar
    42    11    12    1
    43    11    13    1
@<TRIPOS>MOLECULE
*****
 39 43 0 0 0
SMALL
GASTEIGER

@<TRIPOS>ATOM
      1 N         142.0922  143.1792  161.0542 N.pl3   1  UNL1       -0.1971
      2 C         142.3447  141.7049  160.9422 C.3     1  UNL1        0.1971
      3 C         142.4899  141.0693  159.5912 C.ar    1  UNL1        0.0522
      4 C         142.7424  139.5950  159.4792 C.ar    1  UNL1        0.0393
      5 C         142.8876  138.9595  158.1283 C.ar    1  UNL1        0.1453
      6 C         142.7803  139.7983  156.8894 C.ar    1  UNL1        0.0405
      7 C         142.5277  141.2726  157.0014 C.ar    1  UNL1        0.0400
      8 C         142.3825  141.9081  158.3523 C.ar    1  UNL1        0.1576
      9 N         142.1300  143.3825  158.4644 N.2     1  UNL1       -0.0758
     10 C         141.9848  144.0180  159.8153 C.cat   1  UNL1        0.3716
     11 N         141.7323  145.4924  159.9274 N.pl3   1  UNL1       -0.2512
     12 H         141.6618  146.0429  159.1143 H       1  UNL1        0.2412
     13 H         141.6370  145.9095  160.8141 H       1  UNL1        0.2412
     14 C         141.9470  143.8147  162.4052 C.3     1  UNL1        0.1343
     15 C         140.5930  143.9230  163.0415 C.3     1  UNL1        0.0342
     16 C         140.4361  144.6294  164.3554 C.3     1  UNL1        0.0031
     17 C         139.0821  144.7376  164.9917 C.3     1  UNL1        0.0001
     18 C         137.8849  144.1394  164.3142 C.3     1  UNL1        0.0000
     19 C         138.0418  143.4330  163.0003 C.3     1  UNL1        0.0001
     20 C         139.3959  143.3248  162.3639 C.3     1  UNL1        0.0031
     21 C         143.1558  144.3420  163.1198 C.3     1  UNL1        0.0468
     22 C         143.7845  143.5414  164.2214 C.3     1  UNL1        0.0885
     23 C         144.2081  139.6040  163.9618 C.3     1  UNL1        0.1148
     24 N         143.6139  140.9492  164.2574 N.am    1  UNL1       -0.2794
     25 C         144.3787  142.1962  163.9258 C.2     1  UNL1        0.2257
     26 O         145.7377  142.0980  163.2986 O.2     1  UNL1       -0.2749
     27 C         142.2548  141.0473  164.8846 C.3     1  UNL1        0.0754
     28 C         142.0921  141.7059  166.2224 C.3     1  UNL1        0.0198
     29 C         140.7331  141.8041  166.8497 C.3     1  UNL1        0.0017
     30 C         139.5369  141.2437  166.1391 C.3     1  UNL1        0.0001
     31 C         139.6996  140.5851  164.8013 C.3     1  UNL1        0.0017
     32 C         141.0586  140.4869  164.1741 C.3     1  UNL1        0.0198
     33 O         143.1402  137.4851  158.0162 O.3     1  UNL1       -0.4535
     34 C         142.6597  136.7314  156.8116 C.ar    1  UNL1        0.1453
     35 C         141.2005  136.7241  156.4642 C.ar    1  UNL1        0.0375
     36 C         140.7200  135.9704  155.2596 C.ar    1  UNL1        0.0031
     37 C         141.6988  135.2239  154.4024 C.ar    1  UNL1        0.0002
     38 C         143.1580  135.2311  154.7499 C.ar    1  UNL1        0.0031
     39 C         143.6384  135.9849  155.9544 C.ar    1  UNL1        0.0375
@<TRIPOS>BOND
     1    23    24    1
     2    24    25   am
     3    25    26    2
     4    25    22    1
     5    22    21    1
     6    14    21    1
     7    14    15    1
     8    15    16    1
     9    16    17    1
    10    17    18    1
    11    18    19    1
    12    19    20    1
    13    14     1    1
    14     1     2    1
    15     2     3    1
    16     3     4   ar
    17     4     5   ar
    18     5    33    1
    19    33    34    1
    20    34    35   ar
    21    35    36   ar
    22    36    37   ar
    23    37    38   ar
    24    38    39   ar
    25     5     6   ar
    26     6     7   ar
    27     7     8   ar
    28     8     9    1
    29     9    10    2
    30    10    11    1
    31    24    27    1
    32    27    28    1
    33    28    29    1
    34    29    30    1
    35    30    31    1
    36    31    32    1
    37    20    15    1
    38    10     1    1
    39    32    27    1
    40     8     3   ar
    41    39    34   ar
    42    11    12    1
    43    11    13    1
@<TRIPOS>MOLECULE
*****
 39 43 0 0 0
SMALL
GASTEIGER

@<TRIPOS>ATOM
      1 N         141.5560  140.5218  165.6569 N.pl3   1  UNL1       -0.1971
      2 C         141.4255  141.4098  164.4551 C.3     1  UNL1        0.1971
      3 C         142.6114  141.6519  163.5691 C.ar    1  UNL1        0.0522
      4 C         142.4809  142.5400  162.3673 C.ar    1  UNL1        0.0393
      5 C         143.6668  142.7821  161.4814 C.ar    1  UNL1        0.1453
      6 C         144.9833  142.1362  161.7973 C.ar    1  UNL1        0.0405
      7 C         145.1138  141.2482  162.9991 C.ar    1  UNL1        0.0400
      8 C         143.9279  141.0061  163.8850 C.ar    1  UNL1        0.1576
      9 N         144.0584  140.1180  165.0868 N.2     1  UNL1       -0.0758
     10 C         142.8724  139.8759  165.9728 C.cat   1  UNL1        0.3716
     11 N         143.0029  138.9878  167.1746 N.pl3   1  UNL1       -0.2512
     12 H         143.8669  138.5639  167.3820 H       1  UNL1        0.2412
     13 H         142.2245  138.8289  167.7561 H       1  UNL1        0.2412
     14 C         140.3700  140.2796  166.5429 C.3     1  UNL1        0.1343
     15 C         140.1996  141.0762  167.8024 C.3     1  UNL1        0.0342
     16 C         139.5693  140.4461  169.0088 C.3     1  UNL1        0.0031
     17 C         139.3989  141.2426  170.2683 C.3     1  UNL1        0.0001
     18 C         139.8589  142.6694  170.3214 C.3     1  UNL1        0.0000
     19 C         140.4893  143.2996  169.1149 C.3     1  UNL1        0.0001
     20 C         140.6596  142.5029  167.8554 C.3     1  UNL1        0.0031
     21 C         139.3544  139.2408  166.1693 C.3     1  UNL1        0.0468
     22 C         138.3338  139.5364  165.1106 C.3     1  UNL1        0.0885
     23 C         138.6854  139.2716  161.1664 C.3     1  UNL1        0.1148
     24 N         138.5320  139.8551  162.5398 N.am    1  UNL1       -0.2794
     25 C         138.4872  138.9529  163.7372 C.2     1  UNL1        0.2257
     26 O         138.5956  137.4672  163.5614 O.2     1  UNL1       -0.2749
     27 C         138.4235  141.3408  162.7156 C.3     1  UNL1        0.0754
     28 C         137.7189  141.9048  163.9137 C.3     1  UNL1        0.0198
     29 C         137.6104  143.3905  164.0895 C.3     1  UNL1        0.0017
     30 C         138.2065  144.3122  163.0673 C.3     1  UNL1        0.0001
     31 C         138.9111  143.7482  161.8692 C.3     1  UNL1        0.0017
     32 C         139.0196  142.2625  161.6933 C.3     1  UNL1        0.0198
     33 O         143.5364  143.6701  160.2795 O.3     1  UNL1       -0.4535
     34 C         142.2479  143.7096  159.5125 C.ar    1  UNL1        0.1453
     35 C         141.7222  142.4629  158.8648 C.ar    1  UNL1        0.0375
     36 C         140.4337  142.5023  158.0978 C.ar    1  UNL1        0.0031
     37 C         139.6710  143.7884  157.9785 C.ar    1  UNL1        0.0002
     38 C         140.1967  145.0351  158.6261 C.ar    1  UNL1        0.0031
     39 C         141.4852  144.9956  159.3932 C.ar    1  UNL1        0.0375
@<TRIPOS>BOND
     1    23    24    1
     2    24    25   am
     3    25    26    2
     4    25    22    1
     5    22    21    1
     6    14    21    1
     7    14    15    1
     8    15    16    1
     9    16    17    1
    10    17    18    1
    11    18    19    1
    12    19    20    1
    13    14     1    1
    14     1     2    1
    15     2     3    1
    16     3     4   ar
    17     4     5   ar
    18     5    33    1
    19    33    34    1
    20    34    35   ar
    21    35    36   ar
    22    36    37   ar
    23    37    38   ar
    24    38    39   ar
    25     5     6   ar
    26     6     7   ar
    27     7     8   ar
    28     8     9    1
    29     9    10    2
    30    10    11    1
    31    24    27    1
    32    27    28    1
    33    28    29    1
    34    29    30    1
    35    30    31    1
    36    31    32    1
    37    20    15    1
    38    10     1    1
    39    32    27    1
    40     8     3   ar
    41    39    34   ar
    42    11    12    1
    43    11    13    1
@<TRIPOS>MOLECULE
*****
 39 43 0 0 0
SMALL
GASTEIGER

@<TRIPOS>ATOM
      1 N         140.4846  143.2824  164.1059 N.pl3   1  UNL1       -0.1971
      2 C         141.4217  143.0569  162.9566 C.3     1  UNL1        0.1971
      3 C         141.2773  143.8653  161.7013 C.ar    1  UNL1        0.0522
      4 C         142.2144  143.6398  160.5520 C.ar    1  UNL1        0.0393
      5 C         142.0699  144.4481  159.2968 C.ar    1  UNL1        0.1453
      6 C         140.9883  145.4819  159.1908 C.ar    1  UNL1        0.0405
      7 C         140.0511  145.7074  160.3401 C.ar    1  UNL1        0.0400
      8 C         140.1956  144.8991  161.5953 C.ar    1  UNL1        0.1576
      9 N         139.2584  145.1246  162.7447 N.2     1  UNL1       -0.0758
     10 C         139.4029  144.3163  163.9999 C.cat   1  UNL1        0.3716
     11 N         138.4657  144.5417  165.1492 N.pl3   1  UNL1       -0.2512
     12 H         137.7558  145.2203  165.0797 H       1  UNL1        0.2412
     13 H         138.5606  144.0112  165.9731 H       1  UNL1        0.2412
     14 C         140.6290  142.4741  165.3612 C.3     1  UNL1        0.1343
     15 C         139.8462  141.2059  165.5308 C.3     1  UNL1        0.0342
     16 C         139.6872  140.5992  166.8935 C.3     1  UNL1        0.0031
     17 C         138.9044  139.3310  167.0631 C.3     1  UNL1        0.0001
     18 C         138.2806  138.6694  165.8701 C.3     1  UNL1        0.0000
     19 C         138.4396  139.2760  164.5075 C.3     1  UNL1        0.0001
     20 C         139.2225  140.5443  164.3379 C.3     1  UNL1        0.0031
     21 C         141.5563  142.9340  166.4468 C.3     1  UNL1        0.0468
     22 C         142.8953  142.2796  166.6166 C.3     1  UNL1        0.0885
     23 C         145.3393  141.7333  163.5380 C.3     1  UNL1        0.1148
     24 N         144.2548  141.4949  164.5464 N.am    1  UNL1       -0.2794
     25 C         143.9799  142.5181  165.6082 C.2     1  UNL1        0.2257
     26 O         144.7895  143.7796  165.6616 O.2     1  UNL1       -0.2749
     27 C         143.4451  140.2332  164.4930 C.3     1  UNL1        0.0754
     28 C         142.8074  139.8054  163.2045 C.3     1  UNL1        0.0198
     29 C         141.9978  138.5438  163.1510 C.3     1  UNL1        0.0017
     30 C         141.8259  137.7101  164.3860 C.3     1  UNL1        0.0001
     31 C         142.4636  138.1380  165.6745 C.3     1  UNL1        0.0017
     32 C         143.2732  139.3995  165.7280 C.3     1  UNL1        0.0198
     33 O         143.0071  144.2226  158.1474 O.3     1  UNL1       -0.4535
     34 C         143.2875  142.8283  157.6708 C.ar    1  UNL1        0.1453
     35 C         144.6952  142.3103  157.6539 C.ar    1  UNL1        0.0375
     36 C         144.9755  140.9159  157.1772 C.ar    1  UNL1        0.0031
     37 C         143.8482  140.0396  156.7175 C.ar    1  UNL1        0.0002
     38 C         142.4407  140.5576  156.7344 C.ar    1  UNL1        0.0031
     39 C         142.1603  141.9519  157.2111 C.ar    1  UNL1        0.0375
@<TRIPOS>BOND
     1    23    24    1
     2    24    25   am
     3    25    26    2
     4    25    22    1
     5    22    21    1
     6    14    21    1
     7    14    15    1
     8    15    16    1
     9    16    17    1
    10    17    18    1
    11    18    19    1
    12    19    20    1
    13    14     1    1
    14     1     2    1
    15     2     3    1
    16     3     4   ar
    17     4     5   ar
    18     5    33    1
    19    33    34    1
    20    34    35   ar
    21    35    36   ar
    22    36    37   ar
    23    37    38   ar
    24    38    39   ar
    25     5     6   ar
    26     6     7   ar
    27     7     8   ar
    28     8     9    1
    29     9    10    2
    30    10    11    1
    31    24    27    1
    32    27    28    1
    33    28    29    1
    34    29    30    1
    35    30    31    1
    36    31    32    1
    37    20    15    1
    38    10     1    1
    39    32    27    1
    40     8     3   ar
    41    39    34   ar
    42    11    12    1
    43    11    13    1
@<TRIPOS>MOLECULE
*****
 39 43 0 0 0
SMALL
GASTEIGER

@<TRIPOS>ATOM
      1 N         141.4220  143.0787  160.1131 N.pl3   1  UNL1       -0.1971
      2 C         141.0121  142.1284  161.1989 C.3     1  UNL1        0.1971
      3 C         142.0078  141.1577  161.7614 C.ar    1  UNL1        0.0522
      4 C         141.5978  140.2074  162.8472 C.ar    1  UNL1        0.0393
      5 C         142.5935  139.2368  163.4096 C.ar    1  UNL1        0.1453
      6 C         143.9991  139.2164  162.8863 C.ar    1  UNL1        0.0405
      7 C         144.4090  140.1666  161.8006 C.ar    1  UNL1        0.0400
      8 C         143.4134  141.1373  161.2381 C.ar    1  UNL1        0.1576
      9 N         143.8233  142.0876  160.1523 N.2     1  UNL1       -0.0758
     10 C         142.8276  143.0583  159.5898 C.cat   1  UNL1        0.3716
     11 N         143.2376  144.0086  158.5040 N.pl3   1  UNL1       -0.2512
     12 H         144.1601  143.9952  158.1606 H       1  UNL1        0.2412
     13 H         142.5840  144.6457  158.1349 H       1  UNL1        0.2412
     14 C         140.4263  144.0494  159.5506 C.3     1  UNL1        0.1343
     15 C         139.5852  143.6619  158.3707 C.3     1  UNL1        0.0342
     16 C         139.8341  144.2926  157.0327 C.3     1  UNL1        0.0031
     17 C         138.9930  143.9051  155.8527 C.3     1  UNL1        0.0001
     18 C         137.9030  142.8867  156.0107 C.3     1  UNL1        0.0000
     19 C         137.6541  142.2560  157.3487 C.3     1  UNL1        0.0001
     20 C         138.4953  142.6436  158.5287 C.3     1  UNL1        0.0031
     21 C         140.2718  145.4077  160.1681 C.3     1  UNL1        0.0468
     22 C         140.5007  145.5934  161.6388 C.3     1  UNL1        0.0885
     23 C         138.8031  144.0779  164.8902 C.3     1  UNL1        0.1148
     24 N         139.8525  144.5064  163.9078 N.am    1  UNL1       -0.2794
     25 C         139.4513  145.1648  162.6212 C.2     1  UNL1        0.2257
     26 O         138.0006  145.3948  162.3169 O.2     1  UNL1       -0.2749
     27 C         141.3033  144.2765  164.2121 C.3     1  UNL1        0.0754
     28 C         142.3279  145.2861  163.7870 C.3     1  UNL1        0.0198
     29 C         143.7786  145.0562  164.0913 C.3     1  UNL1        0.0017
     30 C         144.2046  143.8167  164.8206 C.3     1  UNL1        0.0001
     31 C         143.1800  142.8070  165.2457 C.3     1  UNL1        0.0017
     32 C         141.7293  143.0369  164.9415 C.3     1  UNL1        0.0198
     33 O         142.1836  138.2864  164.4955 O.3     1  UNL1       -0.4535
     34 C         140.9005  138.5073  165.2404 C.ar    1  UNL1        0.1453
     35 C         140.8227  139.5624  166.3038 C.ar    1  UNL1        0.0375
     36 C         139.5397  139.7833  167.0488 C.ar    1  UNL1        0.0031
     37 C         138.3344  138.9489  166.7304 C.ar    1  UNL1        0.0002
     38 C         138.4122  137.8939  165.6671 C.ar    1  UNL1        0.0031
     39 C         139.6953  137.6730  164.9221 C.ar    1  UNL1        0.0375
@<TRIPOS>BOND
     1    23    24    1
     2    24    25   am
     3    25    26    2
     4    25    22    1
     5    22    21    1
     6    14    21    1
     7    14    15    1
     8    15    16    1
     9    16    17    1
    10    17    18    1
    11    18    19    1
    12    19    20    1
    13    14     1    1
    14     1     2    1
    15     2     3    1
    16     3     4   ar
    17     4     5   ar
    18     5    33    1
    19    33    34    1
    20    34    35   ar
    21    35    36   ar
    22    36    37   ar
    23    37    38   ar
    24    38    39   ar
    25     5     6   ar
    26     6     7   ar
    27     7     8   ar
    28     8     9    1
    29     9    10    2
    30    10    11    1
    31    24    27    1
    32    27    28    1
    33    28    29    1
    34    29    30    1
    35    30    31    1
    36    31    32    1
    37    20    15    1
    38    10     1    1
    39    32    27    1
    40     8     3   ar
    41    39    34   ar
    42    11    12    1
    43    11    13    1
@<TRIPOS>MOLECULE
*****
 39 43 0 0 0
SMALL
GASTEIGER

@<TRIPOS>ATOM
      1 N         141.7068  144.4738  160.6475 N.pl3   1  UNL1       -0.1971
      2 C         140.7427  145.3744  159.9338 C.3     1  UNL1        0.1971
      3 C         140.7077  145.3979  158.4343 C.ar    1  UNL1        0.0522
      4 C         139.7436  146.2985  157.7207 C.ar    1  UNL1        0.0393
      5 C         139.7086  146.3220  156.2213 C.ar    1  UNL1        0.1453
      6 C         140.6377  145.4448  155.4356 C.ar    1  UNL1        0.0405
      7 C         141.6018  144.5442  156.1493 C.ar    1  UNL1        0.0400
      8 C         141.6367  144.5207  157.6486 C.ar    1  UNL1        0.1576
      9 N         142.6009  143.6201  158.3624 N.2     1  UNL1       -0.0758
     10 C         142.6359  143.5966  159.8618 C.cat   1  UNL1        0.3716
     11 N         143.6000  142.6960  160.5755 N.pl3   1  UNL1       -0.2512
     12 H         144.2098  142.1203  160.0599 H       1  UNL1        0.2412
     13 H         143.6229  142.6806  161.5596 H       1  UNL1        0.2412
     14 C         141.7418  144.4504  162.1469 C.3     1  UNL1        0.1343
     15 C         140.5044  144.1038  162.9207 C.3     1  UNL1        0.0342
     16 C         140.0813  144.9566  164.0799 C.3     1  UNL1        0.0031
     17 C         138.8439  144.6100  164.8537 C.3     1  UNL1        0.0001
     18 C         138.0296  143.4107  164.4683 C.3     1  UNL1        0.0000
     19 C         138.4527  142.5579  163.3091 C.3     1  UNL1        0.0001
     20 C         139.6902  142.9045  162.5353 C.3     1  UNL1        0.0031
     21 C         143.0142  144.7735  162.8725 C.3     1  UNL1        0.0468
     22 C         143.4028  143.9893  164.0907 C.3     1  UNL1        0.0885
     23 C         144.4250  140.2014  164.6881 C.3     1  UNL1        0.1148
     24 N         143.7296  141.5222  164.8366 N.am    1  UNL1       -0.2794
     25 C         144.0982  142.6686  163.9423 C.2     1  UNL1        0.2257
     26 O         145.1623  142.4943  162.8996 O.2     1  UNL1       -0.2749
     27 C         142.6655  141.6965  165.8794 C.3     1  UNL1        0.0754
     28 C         141.2381  141.3674  165.5566 C.3     1  UNL1        0.0198
     29 C         140.1740  141.5416  166.5993 C.3     1  UNL1        0.0017
     30 C         140.5373  142.0450  167.9648 C.3     1  UNL1        0.0001
     31 C         141.9647  142.3741  168.2876 C.3     1  UNL1        0.0017
     32 C         143.0288  142.1998  167.2449 C.3     1  UNL1        0.0198
     33 O         138.7445  147.2226  155.5075 O.3     1  UNL1       -0.4535
     34 C         139.1044  148.6566  155.2547 C.ar    1  UNL1        0.1453
     35 C         138.4593  149.7451  156.0603 C.ar    1  UNL1        0.0375
     36 C         138.8193  151.1792  155.8075 C.ar    1  UNL1        0.0031
     37 C         139.8244  151.5247  154.7489 C.ar    1  UNL1        0.0002
     38 C         140.4694  150.4363  153.9433 C.ar    1  UNL1        0.0031
     39 C         140.1095  149.0022  154.1962 C.ar    1  UNL1        0.0375
@<TRIPOS>BOND
     1    23    24    1
     2    24    25   am
     3    25    26    2
     4    25    22    1
     5    22    21    1
     6    14    21    1
     7    14    15    1
     8    15    16    1
     9    16    17    1
    10    17    18    1
    11    18    19    1
    12    19    20    1
    13    14     1    1
    14     1     2    1
    15     2     3    1
    16     3     4   ar
    17     4     5   ar
    18     5    33    1
    19    33    34    1
    20    34    35   ar
    21    35    36   ar
    22    36    37   ar
    23    37    38   ar
    24    38    39   ar
    25     5     6   ar
    26     6     7   ar
    27     7     8   ar
    28     8     9    1
    29     9    10    2
    30    10    11    1
    31    24    27    1
    32    27    28    1
    33    28    29    1
    34    29    30    1
    35    30    31    1
    36    31    32    1
    37    20    15    1
    38    10     1    1
    39    32    27    1
    40     8     3   ar
    41    39    34   ar
    42    11    12    1
    43    11    13    1
