@<TRIPOS>MOLECULE
*****
 20 23 0 0 0
SMALL
GASTEIGER

@<TRIPOS>ATOM
      1 C         141.6274  141.8475  165.7577 C.ar    1  UNL1        0.1639
      2 N         141.0287  142.4752  166.9814 N.ar    1  UNL1       -0.2279
      3 C         141.3321  141.5886  168.1527 C.ar    1  UNL1        0.0736
      4 C         142.1183  140.4131  167.6529 C.ar    1  UNL1        0.0245
      5 S         142.3008  140.5731  166.1726 S.2     1  UNL1       -0.0561
      6 C         142.5665  139.3488  168.6102 C.3     1  UNL1        0.0403
      7 C         142.2284  139.4601  170.0674 C.3     1  UNL1        0.0492
      8 C         141.4421  140.6357  170.5672 C.2     1  UNL1        0.0696
      9 N         140.9633  141.0134  171.9376 N.2     1  UNL1       -0.1562
     10 N         140.2191  142.3111  171.8272 N.2     1  UNL1       -0.1510
     11 C         140.2381  142.7354  170.3886 C.2     1  UNL1        0.1070
     12 C         140.9940  141.6999  169.6099 C.3     1  UNL1        0.1212
     13 N         141.5639  142.3977  164.3637 N.pl3   1  UNL1       -0.2782
     14 H         142.3487  142.3332  163.7728 H       1  UNL1        0.1555
     15 C         137.7862  144.3433  162.8826 C.ar    1  UNL1        0.0208
     16 C         137.7382  142.9656  163.4737 C.ar    1  UNL1        0.0045
     17 C         138.9974  142.3170  163.9674 C.ar    1  UNL1        0.0345
     18 C         140.3046  143.0462  163.8700 C.ar    1  UNL1        0.1336
     19 N         140.3526  144.4240  163.2788 N.ar    1  UNL1       -0.2290
     20 C         139.0934  145.0725  162.7851 C.ar    1  UNL1        0.1003
@<TRIPOS>BOND
     1    15    16   ar
     2    16    17   ar
     3    17    18   ar
     4    18    13    1
     5    13     1    1
     6     1     2   ar
     7     2     3   ar
     8     3     4   ar
     9     4     5   ar
    10     4     6    1
    11     6     7    1
    12     7     8    1
    13     8     9    2
    14     9    10    1
    15    10    11    2
    16    11    12    1
    17    18    19   ar
    18    19    20   ar
    19    20    15   ar
    20     5     1   ar
    21    12     8    1
    22    12     3    1
    23    13    14    1
@<TRIPOS>MOLECULE
*****
 20 23 0 0 0
SMALL
GASTEIGER

@<TRIPOS>ATOM
      1 C         140.8829  141.8558  165.5910 C.ar    1  UNL1        0.1639
      2 N         140.1368  141.8685  166.8922 N.ar    1  UNL1       -0.2279
      3 C         141.1348  142.0520  167.9970 C.ar    1  UNL1        0.0736
      4 C         142.4976  142.1527  167.3785 C.ar    1  UNL1        0.0245
      5 S         142.3420  142.0315  165.8915 S.2     1  UNL1       -0.0561
      6 C         143.7042  142.3418  168.2492 C.3     1  UNL1        0.0403
      7 C         143.5481  142.4302  169.7385 C.3     1  UNL1        0.0492
      8 C         142.1852  142.3295  170.3570 C.2     1  UNL1        0.0696
      9 N         141.7240  142.3811  171.7834 N.2     1  UNL1       -0.1562
     10 N         140.2323  142.2239  171.7941 N.2     1  UNL1       -0.1510
     11 C         139.7716  142.0751  170.3744 C.2     1  UNL1        0.1070
     12 C         140.9786  142.1404  169.4862 C.3     1  UNL1        0.1212
     13 N         140.2765  141.6956  164.2284 N.pl3   1  UNL1       -0.2782
     14 H         140.2112  142.4704  163.6245 H       1  UNL1        0.1555
     15 C         138.7557  137.6738  162.9011 C.ar    1  UNL1        0.0208
     16 C         139.8847  137.7613  163.8847 C.ar    1  UNL1        0.0045
     17 C         140.3917  139.1020  164.3272 C.ar    1  UNL1        0.0345
     18 C         139.7696  140.3550  163.7860 C.ar    1  UNL1        0.1336
     19 N         138.6404  140.2675  162.8024 N.ar    1  UNL1       -0.2290
     20 C         138.1335  138.9268  162.3600 C.ar    1  UNL1        0.1003
@<TRIPOS>BOND
     1    15    16   ar
     2    16    17   ar
     3    17    18   ar
     4    18    13    1
     5    13     1    1
     6     1     2   ar
     7     2     3   ar
     8     3     4   ar
     9     4     5   ar
    10     4     6    1
    11     6     7    1
    12     7     8    1
    13     8     9    2
    14     9    10    1
    15    10    11    2
    16    11    12    1
    17    18    19   ar
    18    19    20   ar
    19    20    15   ar
    20     5     1   ar
    21    12     8    1
    22    12     3    1
    23    13    14    1
@<TRIPOS>MOLECULE
*****
 20 23 0 0 0
SMALL
GASTEIGER

@<TRIPOS>ATOM
      1 C         139.5969  139.4044  166.2707 C.ar    1  UNL1        0.1639
      2 N         139.3379  139.8000  167.6942 N.ar    1  UNL1       -0.2279
      3 C         140.4832  140.6527  168.1540 C.ar    1  UNL1        0.0736
      4 C         141.4500  140.7840  167.0147 C.ar    1  UNL1        0.0245
      5 S         140.9022  140.0125  165.8507 S.2     1  UNL1       -0.0561
      6 C         142.7041  141.5891  167.1843 C.3     1  UNL1        0.0403
      7 C         142.9916  142.2629  168.4933 C.3     1  UNL1        0.0492
      8 C         142.0248  142.1316  169.6326 C.2     1  UNL1        0.0696
      9 N         142.0394  142.6783  171.0294 N.2     1  UNL1       -0.1562
     10 N         140.7942  142.2110  171.7230 N.2     1  UNL1       -0.1510
     11 C         140.0100  141.3756  170.7549 C.2     1  UNL1        0.1070
     12 C         140.7706  141.3265  169.4630 C.3     1  UNL1        0.1212
     13 N         138.7069  138.5505  165.4171 N.pl3   1  UNL1       -0.2782
     14 H         138.2386  137.7795  165.8115 H       1  UNL1        0.1555
     15 C         138.1770  139.5132  161.0533 C.ar    1  UNL1        0.0208
     16 C         138.7189  138.1768  161.4661 C.ar    1  UNL1        0.0045
     17 C         138.8956  137.8559  162.9207 C.ar    1  UNL1        0.0345
     18 C         138.5303  138.8714  163.9624 C.ar    1  UNL1        0.1336
     19 N         137.9883  140.2078  163.5497 N.ar    1  UNL1       -0.2290
     20 C         137.8117  140.5287  162.0951 C.ar    1  UNL1        0.1003
@<TRIPOS>BOND
     1    15    16   ar
     2    16    17   ar
     3    17    18   ar
     4    18    13    1
     5    13     1    1
     6     1     2   ar
     7     2     3   ar
     8     3     4   ar
     9     4     5   ar
    10     4     6    1
    11     6     7    1
    12     7     8    1
    13     8     9    2
    14     9    10    1
    15    10    11    2
    16    11    12    1
    17    18    19   ar
    18    19    20   ar
    19    20    15   ar
    20     5     1   ar
    21    12     8    1
    22    12     3    1
    23    13    14    1
@<TRIPOS>MOLECULE
*****
 20 23 0 0 0
SMALL
GASTEIGER

@<TRIPOS>ATOM
      1 C         140.9653  141.2793  165.6099 C.ar    1  UNL1        0.1639
      2 N         141.6282  141.8905  166.8086 N.ar    1  UNL1       -0.2279
      3 C         140.8999  141.4184  168.0320 C.ar    1  UNL1        0.0736
      4 C         139.7869  140.5155  167.5895 C.ar    1  UNL1        0.0245
      5 S         139.8273  140.4295  166.0924 S.2     1  UNL1       -0.0561
      6 C         138.8805  139.8883  168.6067 C.3     1  UNL1        0.0403
      7 C         139.0870  140.1640  170.0667 C.3     1  UNL1        0.0492
      8 C         140.2000  141.0669  170.5093 C.2     1  UNL1        0.0696
      9 N         140.6444  141.5203  171.8683 N.2     1  UNL1       -0.1562
     10 N         141.8255  142.4277  171.6909 N.2     1  UNL1       -0.1510
     11 C         142.1111  142.5352  170.2222 C.2     1  UNL1        0.1070
     12 C         141.1064  141.6942  169.4919 C.3     1  UNL1        0.1212
     13 N         141.3694  141.4822  164.1797 N.pl3   1  UNL1       -0.2782
     14 H         141.0800  140.8413  163.4907 H       1  UNL1        0.1555
     15 C         143.9042  145.0207  163.0381 C.ar    1  UNL1        0.0208
     16 C         142.5765  145.2327  163.7031 C.ar    1  UNL1        0.0045
     17 C         141.7315  144.0532  164.0836 C.ar    1  UNL1        0.0345
     18 C         142.2143  142.6618  163.7991 C.ar    1  UNL1        0.1336
     19 N         143.5421  142.4498  163.1341 N.ar    1  UNL1       -0.2290
     20 C         144.3870  143.6294  162.7536 C.ar    1  UNL1        0.1003
@<TRIPOS>BOND
     1    15    16   ar
     2    16    17   ar
     3    17    18   ar
     4    18    13    1
     5    13     1    1
     6     1     2   ar
     7     2     3   ar
     8     3     4   ar
     9     4     5   ar
    10     4     6    1
    11     6     7    1
    12     7     8    1
    13     8     9    2
    14     9    10    1
    15    10    11    2
    16    11    12    1
    17    18    19   ar
    18    19    20   ar
    19    20    15   ar
    20     5     1   ar
    21    12     8    1
    22    12     3    1
    23    13    14    1
@<TRIPOS>MOLECULE
*****
 20 23 0 0 0
SMALL
GASTEIGER

@<TRIPOS>ATOM
      1 C         140.7507  142.1214  165.5756 C.ar    1  UNL1        0.1639
      2 N         140.0268  142.1275  166.8893 N.ar    1  UNL1       -0.2279
      3 C         141.0511  142.2021  167.9826 C.ar    1  UNL1        0.0736
      4 C         142.4081  142.2420  167.3446 C.ar    1  UNL1        0.0245
      5 S         142.2224  142.1921  165.8569 S.2     1  UNL1       -0.0561
      6 C         143.6373  142.3186  168.2006 C.3     1  UNL1        0.0403
      7 C         143.5098  142.3553  169.6948 C.3     1  UNL1        0.0492
      8 C         142.1528  142.3154  170.3328 C.2     1  UNL1        0.0696
      9 N         141.7176  142.3373  171.7681 N.2     1  UNL1       -0.1562
     10 N         140.2192  142.2742  171.7990 N.2     1  UNL1       -0.1510
     11 C         139.7284  142.2133  170.3829 C.2     1  UNL1        0.1070
     12 C         140.9235  142.2388  169.4767 C.3     1  UNL1        0.1212
     13 N         140.1147  142.0559  164.2187 N.pl3   1  UNL1       -0.2782
     14 H         139.6345  141.2433  163.9388 H       1  UNL1        0.1555
     15 C         140.4011  145.5740  161.4275 C.ar    1  UNL1        0.0208
     16 C         141.4268  144.4813  161.3645 C.ar    1  UNL1        0.0045
     17 C         141.3313  143.3086  162.2949 C.ar    1  UNL1        0.0345
     18 C         140.2102  143.2286  163.2882 C.ar    1  UNL1        0.1336
     19 N         139.1845  144.3214  163.3512 N.ar    1  UNL1       -0.2290
     20 C         139.2800  145.4941  162.4208 C.ar    1  UNL1        0.1003
@<TRIPOS>BOND
     1    15    16   ar
     2    16    17   ar
     3    17    18   ar
     4    18    13    1
     5    13     1    1
     6     1     2   ar
     7     2     3   ar
     8     3     4   ar
     9     4     5   ar
    10     4     6    1
    11     6     7    1
    12     7     8    1
    13     8     9    2
    14     9    10    1
    15    10    11    2
    16    11    12    1
    17    18    19   ar
    18    19    20   ar
    19    20    15   ar
    20     5     1   ar
    21    12     8    1
    22    12     3    1
    23    13    14    1
@<TRIPOS>MOLECULE
*****
 20 23 0 0 0
SMALL
GASTEIGER

@<TRIPOS>ATOM
      1 C         139.8985  140.2871  166.6420 C.ar    1  UNL1        0.1639
      2 N         139.6854  141.6605  166.0778 N.ar    1  UNL1       -0.2279
      3 C         139.0694  141.5125  164.7181 C.ar    1  UNL1        0.0736
      4 C         138.9019  140.0477  164.4420 C.ar    1  UNL1        0.0245
      5 S         139.4143  139.2904  165.6311 S.2     1  UNL1       -0.0561
      6 C         138.3044  139.5928  163.1436 C.3     1  UNL1        0.0403
      7 C         137.8744  140.6027  162.1211 C.3     1  UNL1        0.0492
      8 C         138.0420  142.0675  162.3972 C.2     1  UNL1        0.0696
      9 N         137.7133  143.2857  161.5861 N.2     1  UNL1       -0.1562
     10 N         138.1076  144.4936  162.3834 N.2     1  UNL1       -0.1510
     11 C         138.6801  144.0218  163.6871 C.2     1  UNL1        0.1070
     12 C         138.6395  142.5224  163.6957 C.3     1  UNL1        0.1212
     13 N         140.4917  139.9667  167.9819 N.pl3   1  UNL1       -0.2782
     14 H         140.4030  139.0601  168.3555 H       1  UNL1        0.1555
     15 C         142.6765  143.1492  170.2945 C.ar    1  UNL1        0.0208
     16 C         143.4348  141.9981  169.7030 C.ar    1  UNL1        0.0045
     17 C         142.7065  140.9372  168.9321 C.ar    1  UNL1        0.0345
     18 C         141.2200  141.0275  168.7528 C.ar    1  UNL1        0.1336
     19 N         140.4617  142.1787  169.3443 N.ar    1  UNL1       -0.2290
     20 C         141.1901  143.2395  170.1152 C.ar    1  UNL1        0.1003
@<TRIPOS>BOND
     1    15    16   ar
     2    16    17   ar
     3    17    18   ar
     4    18    13    1
     5    13     1    1
     6     1     2   ar
     7     2     3   ar
     8     3     4   ar
     9     4     5   ar
    10     4     6    1
    11     6     7    1
    12     7     8    1
    13     8     9    2
    14     9    10    1
    15    10    11    2
    16    11    12    1
    17    18    19   ar
    18    19    20   ar
    19    20    15   ar
    20     5     1   ar
    21    12     8    1
    22    12     3    1
    23    13    14    1
@<TRIPOS>MOLECULE
*****
 20 23 0 0 0
SMALL
GASTEIGER

@<TRIPOS>ATOM
      1 C         142.5292  140.2776  166.1465 C.ar    1  UNL1        0.1639
      2 N         141.7963  141.4406  166.7467 N.ar    1  UNL1       -0.2279
      3 C         141.6464  141.1850  168.2172 C.ar    1  UNL1        0.0736
      4 C         142.2866  139.8641  168.5257 C.ar    1  UNL1        0.0245
      5 S         142.8322  139.3033  167.2459 S.2     1  UNL1       -0.0561
      6 C         142.2901  139.3426  169.9321 C.3     1  UNL1        0.0403
      7 C         141.6533  140.1421  171.0301 C.3     1  UNL1        0.0492
      8 C         141.0131  141.4631  170.7215 C.2     1  UNL1        0.0696
      9 N         140.3130  142.4662  171.5896 N.2     1  UNL1       -0.1562
     10 N         139.8769  143.6076  170.7196 N.2     1  UNL1       -0.1510
     11 C         140.3074  143.3100  169.3139 C.2     1  UNL1        0.1070
     12 C         141.0097  141.9845  169.3151 C.3     1  UNL1        0.1212
     13 N         142.8948  140.1171  164.7006 N.pl3   1  UNL1       -0.2782
     14 H         143.7591  140.4541  164.3711 H       1  UNL1        0.1555
     15 C         140.0410  138.0951  161.8691 C.ar    1  UNL1        0.0208
     16 C         140.8639  137.2746  162.8175 C.ar    1  UNL1        0.0045
     17 C         141.8152  137.9485  163.7614 C.ar    1  UNL1        0.0345
     18 C         141.9435  139.4430  163.7568 C.ar    1  UNL1        0.1336
     19 N         141.1206  140.2636  162.8083 N.ar    1  UNL1       -0.2290
     20 C         140.1693  139.5896  161.8645 C.ar    1  UNL1        0.1003
@<TRIPOS>BOND
     1    15    16   ar
     2    16    17   ar
     3    17    18   ar
     4    18    13    1
     5    13     1    1
     6     1     2   ar
     7     2     3   ar
     8     3     4   ar
     9     4     5   ar
    10     4     6    1
    11     6     7    1
    12     7     8    1
    13     8     9    2
    14     9    10    1
    15    10    11    2
    16    11    12    1
    17    18    19   ar
    18    19    20   ar
    19    20    15   ar
    20     5     1   ar
    21    12     8    1
    22    12     3    1
    23    13    14    1
@<TRIPOS>MOLECULE
*****
 20 23 0 0 0
SMALL
GASTEIGER

@<TRIPOS>ATOM
      1 C         142.9928  139.9478  166.5759 C.ar    1  UNL1        0.1639
      2 N         143.0267  141.3988  166.1974 N.ar    1  UNL1       -0.2279
      3 C         143.5484  141.5000  164.7947 C.ar    1  UNL1        0.0736
      4 C         143.8369  140.1114  164.3062 C.ar    1  UNL1        0.0245
      5 S         143.4936  139.1521  165.4070 S.2     1  UNL1       -0.0561
      6 C         144.3750  139.9000  162.9222 C.3     1  UNL1        0.0403
      7 C         144.6246  141.0771  162.0265 C.3     1  UNL1        0.0492
      8 C         144.3360  142.4657  162.5150 C.2     1  UNL1        0.0696
      9 N         144.4809  143.8091  161.8637 N.2     1  UNL1       -0.1562
     10 N         144.0323  144.8508  162.8453 N.2     1  UNL1       -0.1510
     11 C         143.6102  144.1512  164.1032 C.2     1  UNL1        0.1070
     12 C         143.7979  142.6771  163.8991 C.3     1  UNL1        0.1212
     13 N         142.5381  139.3902  167.8920 N.pl3   1  UNL1       -0.2782
     14 H         142.7404  138.4558  168.1271 H       1  UNL1        0.1555
     15 C         140.2494  141.9885  170.7662 C.ar    1  UNL1        0.0208
     16 C         139.5158  141.0384  169.8667 C.ar    1  UNL1        0.0045
     17 C         140.2787  140.1723  168.9086 C.ar    1  UNL1        0.0345
     18 C         141.7751  140.2563  168.8501 C.ar    1  UNL1        0.1336
     19 N         142.5088  141.2064  169.7496 N.ar    1  UNL1       -0.2290
     20 C         141.7459  142.0725  170.7076 C.ar    1  UNL1        0.1003
@<TRIPOS>BOND
     1    15    16   ar
     2    16    17   ar
     3    17    18   ar
     4    18    13    1
     5    13     1    1
     6     1     2   ar
     7     2     3   ar
     8     3     4   ar
     9     4     5   ar
    10     4     6    1
    11     6     7    1
    12     7     8    1
    13     8     9    2
    14     9    10    1
    15    10    11    2
    16    11    12    1
    17    18    19   ar
    18    19    20   ar
    19    20    15   ar
    20     5     1   ar
    21    12     8    1
    22    12     3    1
    23    13    14    1
@<TRIPOS>MOLECULE
*****
 20 23 0 0 0
SMALL
GASTEIGER

@<TRIPOS>ATOM
      1 C         140.6617  142.4421  165.2688 C.ar    1  UNL1        0.1639
      2 N         141.5490  142.3341  164.0642 N.ar    1  UNL1       -0.2279
      3 C         141.1465  143.4055  163.0946 C.ar    1  UNL1        0.0736
      4 C         140.0105  144.1756  163.6999 C.ar    1  UNL1        0.0245
      5 S         139.7109  143.5802  165.0437 S.2     1  UNL1       -0.0561
      6 C         139.3957  145.3195  162.9494 C.3     1  UNL1        0.0403
      7 C         139.9169  145.6934  161.5934 C.3     1  UNL1        0.0492
      8 C         141.0529  144.9233  160.9880 C.2     1  UNL1        0.0696
      9 N         141.7728  145.0593  159.6791 N.2     1  UNL1       -0.1562
     10 N         142.8325  143.9993  159.6208 N.2     1  UNL1       -0.1510
     11 C         142.7676  143.2083  160.8936 C.2     1  UNL1        0.1070
     12 C         141.6677  143.7794  161.7386 C.3     1  UNL1        0.1212
     13 N         140.7158  141.5658  166.4850 N.pl3   1  UNL1       -0.2782
     14 H         140.3384  140.6570  166.4541 H       1  UNL1        0.1555
     15 C         142.6029  143.0907  170.2749 C.ar    1  UNL1        0.0208
     16 C         141.1781  143.4341  169.9557 C.ar    1  UNL1        0.0045
     17 C         140.5490  142.9258  168.6924 C.ar    1  UNL1        0.0345
     18 C         141.3448  142.0741  167.7484 C.ar    1  UNL1        0.1336
     19 N         142.7697  141.7307  168.0675 N.ar    1  UNL1       -0.2290
     20 C         143.3987  142.2390  169.3308 C.ar    1  UNL1        0.1003
@<TRIPOS>BOND
     1    15    16   ar
     2    16    17   ar
     3    17    18   ar
     4    18    13    1
     5    13     1    1
     6     1     2   ar
     7     2     3   ar
     8     3     4   ar
     9     4     5   ar
    10     4     6    1
    11     6     7    1
    12     7     8    1
    13     8     9    2
    14     9    10    1
    15    10    11    2
    16    11    12    1
    17    18    19   ar
    18    19    20   ar
    19    20    15   ar
    20     5     1   ar
    21    12     8    1
    22    12     3    1
    23    13    14    1
