@<TRIPOS>MOLECULE
*****
 37 41 0 0 0
SMALL
GASTEIGER

@<TRIPOS>ATOM
      1 C         143.2983  142.6877  166.1418 C.3     1  UNL1        0.1339
      2 N         142.5912  141.5472  166.8121 N.ar    1  UNL1       -0.3104
      3 C         142.7220  140.0964  166.4544 C.ar    1  UNL1        0.1250
      4 N         141.8409  139.3098  167.3790 N.ar    1  UNL1       -0.2306
      5 C         141.1655  140.2745  168.3081 C.ar    1  UNL1        0.0983
      6 C         140.1882  140.0724  169.4279 C.ar    1  UNL1        0.0206
      7 C         139.6746  141.2532  170.1973 C.ar    1  UNL1        0.0016
      8 C         140.1384  142.6360  169.8469 C.ar    1  UNL1        0.0016
      9 C         141.1157  142.8381  168.7271 C.ar    1  UNL1        0.0188
     10 C         141.6292  141.6573  167.9577 C.ar    1  UNL1        0.0789
     11 C         143.5828  139.5313  165.3636 C.3     1  UNL1        0.0919
     12 C         143.3855  139.9777  163.9453 C.ar    1  UNL1        0.0065
     13 C         144.4655  140.7469  163.2439 C.ar    1  UNL1        0.0549
     14 CL        145.7428  141.0698  163.9609 Cl      1  UNL1       -0.0825
     15 C         144.2681  141.1933  161.8255 C.ar    1  UNL1        0.0111
     16 C         142.9908  140.8704  161.1085 C.ar    1  UNL1        0.0017
     17 C         141.9108  140.1011  161.8098 C.ar    1  UNL1        0.0111
     18 C         142.1081  139.6548  163.2282 C.ar    1  UNL1        0.0549
     19 CL        141.0281  138.8855  163.9295 Cl      1  UNL1       -0.0825
     20 C         141.5896  144.5055  162.3966 C.ar    1  UNL1        0.0533
     21 C         140.7456  143.5994  163.2431 C.ar    1  UNL1        0.0042
     22 C         141.3151  142.9934  164.4914 C.ar    1  UNL1       -0.0022
     23 C         142.7287  143.2936  164.8935 C.ar    1  UNL1        0.0004
     24 C         143.5728  144.1998  164.0470 C.ar    1  UNL1       -0.0022
     25 C         143.0033  144.8058  162.7986 C.ar    1  UNL1        0.0042
     26 N         141.8205  145.1067  159.8796 N.am    1  UNL1       -0.2995
     27 C         141.0201  145.1115  161.1482 C.2     1  UNL1        0.2459
     28 O         139.6502  145.7222  161.1685 O.2     1  UNL1       -0.2701
     29 H         142.7196  144.7058  159.8663 H       1  UNL1        0.1498
     30 C         141.2510  145.7126  158.6312 C.3     1  UNL1        0.1056
     31 N         139.8108  145.3194  156.4140 N.3     1  UNL1       -0.2724
     32 C         138.9279  144.2192  155.9039 C.3     1  UNL1        0.0721
     33 C         138.9024  143.1298  156.9348 C.3     1  UNL1        0.0188
     34 C         139.7695  143.5566  158.0819 C.3     1  UNL1        0.0191
     35 C         140.3310  144.9098  157.7600 C.3     1  UNL1        0.0772
     36 C         139.0860  147.6884  155.6317 C.3     1  UNL1        0.0188
     37 C         140.1194  146.6035  155.7029 C.3     1  UNL1        0.0721
@<TRIPOS>BOND
     1    36    37    1
     2    37    31    1
     3    31    32    1
     4    32    33    1
     5    33    34    1
     6    34    35    1
     7    35    30    1
     8    30    26    1
     9    26    27   am
    10    27    28    2
    11    27    20    1
    12    20    21   ar
    13    21    22   ar
    14    22    23   ar
    15    23     1    1
    16     1     2    1
    17     2     3   ar
    18     3    11    1
    19    11    12    1
    20    12    13   ar
    21    13    14    1
    22    13    15   ar
    23    15    16   ar
    24    16    17   ar
    25    17    18   ar
    26    18    19    1
    27     3     4   ar
    28     4     5   ar
    29     5     6   ar
    30     6     7   ar
    31     7     8   ar
    32     8     9   ar
    33     9    10   ar
    34    23    24   ar
    35    24    25   ar
    36    35    31    1
    37    25    20   ar
    38    10     2   ar
    39    18    12   ar
    40    10     5   ar
    41    26    29    1
@<TRIPOS>MOLECULE
*****
 37 41 0 0 0
SMALL
GASTEIGER

@<TRIPOS>ATOM
      1 C         143.3258  142.7118  166.0579 C.3     1  UNL1        0.1339
      2 N         142.6535  141.5459  166.7203 N.ar    1  UNL1       -0.3104
      3 C         142.8465  140.1005  166.3688 C.ar    1  UNL1        0.1250
      4 N         141.9824  139.2821  167.2817 N.ar    1  UNL1       -0.2306
      5 C         141.2554  140.2217  168.1975 C.ar    1  UNL1        0.0983
      6 C         140.2693  139.9839  169.3025 C.ar    1  UNL1        0.0206
      7 C         139.6979  141.1454  170.0605 C.ar    1  UNL1        0.0016
      8 C         140.1126  142.5445  169.7135 C.ar    1  UNL1        0.0016
      9 C         141.0987  142.7822  168.6085 C.ar    1  UNL1        0.0188
     10 C         141.6701  141.6208  167.8505 C.ar    1  UNL1        0.0789
     11 C         143.7458  139.5672  165.2931 C.3     1  UNL1        0.0919
     12 C         143.5302  139.9737  163.8655 C.ar    1  UNL1        0.0065
     13 C         144.5622  140.8002  163.1570 C.ar    1  UNL1        0.0549
     14 CL        145.8097  141.2203  163.8762 Cl      1  UNL1       -0.0825
     15 C         144.3466  141.2067  161.7293 C.ar    1  UNL1        0.0111
     16 C         143.0991  140.7867  161.0101 C.ar    1  UNL1        0.0017
     17 C         142.0671  139.9602  161.7186 C.ar    1  UNL1        0.0111
     18 C         142.2827  139.5537  163.1462 C.ar    1  UNL1        0.0549
     19 CL        141.2507  138.7272  163.8547 Cl      1  UNL1       -0.0825
     20 C         141.6308  144.4252  162.2578 C.ar    1  UNL1        0.0533
     21 C         143.0136  144.8029  162.6994 C.ar    1  UNL1        0.0042
     22 C         143.5786  144.2318  163.9661 C.ar    1  UNL1       -0.0022
     23 C         142.7608  143.2829  164.7912 C.ar    1  UNL1        0.0004
     24 C         141.3779  142.9052  164.3496 C.ar    1  UNL1       -0.0022
     25 C         140.8129  143.4763  163.0829 C.ar    1  UNL1        0.0042
     26 N         141.9490  145.1830  159.7931 N.am    1  UNL1       -0.2995
     27 C         141.0657  144.9963  160.9911 C.2     1  UNL1        0.2459
     28 O         139.6175  145.3808  160.9223 O.2     1  UNL1       -0.2701
     29 H         142.8995  144.9307  159.8382 H       1  UNL1        0.1498
     30 C         141.3839  145.7541  158.5264 C.3     1  UNL1        0.1056
     31 N         140.4690  143.6993  157.0822 N.3     1  UNL1       -0.2724
     32 C         140.7277  143.1752  155.7008 C.3     1  UNL1        0.0721
     33 C         141.7444  144.0658  155.0501 C.3     1  UNL1        0.0188
     34 C         142.1140  145.1402  156.0293 C.3     1  UNL1        0.0191
     35 C         141.3257  144.9138  157.2853 C.3     1  UNL1        0.0772
     36 C         140.0067  142.0901  159.0688 C.3     1  UNL1        0.0188
     37 C         139.5201  143.1121  158.0846 C.3     1  UNL1        0.0721
@<TRIPOS>BOND
     1    36    37    1
     2    37    31    1
     3    31    32    1
     4    32    33    1
     5    33    34    1
     6    34    35    1
     7    35    30    1
     8    30    26    1
     9    26    27   am
    10    27    28    2
    11    27    20    1
    12    20    21   ar
    13    21    22   ar
    14    22    23   ar
    15    23     1    1
    16     1     2    1
    17     2     3   ar
    18     3    11    1
    19    11    12    1
    20    12    13   ar
    21    13    14    1
    22    13    15   ar
    23    15    16   ar
    24    16    17   ar
    25    17    18   ar
    26    18    19    1
    27     3     4   ar
    28     4     5   ar
    29     5     6   ar
    30     6     7   ar
    31     7     8   ar
    32     8     9   ar
    33     9    10   ar
    34    23    24   ar
    35    24    25   ar
    36    35    31    1
    37    25    20   ar
    38    10     2   ar
    39    18    12   ar
    40    10     5   ar
    41    26    29    1
@<TRIPOS>MOLECULE
*****
 37 41 0 0 0
SMALL
GASTEIGER

@<TRIPOS>ATOM
      1 C         143.3617  142.7639  166.0728 C.3     1  UNL1        0.1339
      2 N         142.7666  141.5689  166.7568 N.ar    1  UNL1       -0.3104
      3 C         142.9647  140.1361  166.3593 C.ar    1  UNL1        0.1250
      4 N         142.1895  139.2786  167.3152 N.ar    1  UNL1       -0.2306
      5 C         141.5124  140.1814  168.3035 C.ar    1  UNL1        0.0983
      6 C         140.6171  139.8973  169.4730 C.ar    1  UNL1        0.0206
      7 C         140.0785  141.0288  170.2973 C.ar    1  UNL1        0.0016
      8 C         140.4352  142.4443  169.9522 C.ar    1  UNL1        0.0016
      9 C         141.3305  142.7283  168.7827 C.ar    1  UNL1        0.0188
     10 C         141.8691  141.5969  167.9583 C.ar    1  UNL1        0.0789
     11 C         143.7925  139.6469  165.2082 C.3     1  UNL1        0.0919
     12 C         143.5604  140.1945  163.8312 C.ar    1  UNL1        0.0065
     13 C         142.2705  139.9123  163.1194 C.ar    1  UNL1        0.0549
     14 CL        141.2128  139.0824  163.7846 Cl      1  UNL1       -0.0825
     15 C         142.0384  140.4600  161.7424 C.ar    1  UNL1        0.0111
     16 C         143.0960  141.2898  161.0771 C.ar    1  UNL1        0.0017
     17 C         144.3859  141.5721  161.7889 C.ar    1  UNL1        0.0111
     18 C         144.6181  141.0244  163.1659 C.ar    1  UNL1        0.0549
     19 CL        145.9079  141.3067  163.8776 Cl      1  UNL1       -0.0825
     20 C         141.2428  144.6413  162.5748 C.ar    1  UNL1        0.0533
     21 C         142.6684  145.0026  162.8701 C.ar    1  UNL1        0.0042
     22 C         143.3747  144.3768  164.0361 C.ar    1  UNL1       -0.0022
     23 C         142.6554  143.3897  164.9069 C.ar    1  UNL1        0.0004
     24 C         141.2298  143.0284  164.6116 C.ar    1  UNL1       -0.0022
     25 C         140.5235  143.6542  163.4456 C.ar    1  UNL1        0.0042
     26 N         141.0714  145.0805  160.0198 N.am    1  UNL1       -0.2995
     27 C         140.5365  145.2670  161.4088 C.2     1  UNL1        0.2459
     28 O         139.2953  146.0793  161.6318 O.2     1  UNL1       -0.2701
     29 H         141.8860  144.5473  159.8735 H       1  UNL1        0.1498
     30 C         140.3650  145.7062  158.8538 C.3     1  UNL1        0.1056
     31 N         140.4278  146.2664  156.2410 N.3     1  UNL1       -0.2724
     32 C         141.3019  145.8633  155.0905 C.3     1  UNL1        0.0721
     33 C         142.3558  144.9325  155.6130 C.3     1  UNL1        0.0188
     34 C         142.1332  144.7604  157.0864 C.3     1  UNL1        0.0191
     35 C         140.9416  145.5848  157.4745 C.3     1  UNL1        0.0772
     36 C         139.1414  148.1874  155.0559 C.3     1  UNL1        0.0188
     37 C         139.2473  147.1891  156.1704 C.3     1  UNL1        0.0721
@<TRIPOS>BOND
     1    36    37    1
     2    37    31    1
     3    31    32    1
     4    32    33    1
     5    33    34    1
     6    34    35    1
     7    35    30    1
     8    30    26    1
     9    26    27   am
    10    27    28    2
    11    27    20    1
    12    20    21   ar
    13    21    22   ar
    14    22    23   ar
    15    23     1    1
    16     1     2    1
    17     2     3   ar
    18     3    11    1
    19    11    12    1
    20    12    13   ar
    21    13    14    1
    22    13    15   ar
    23    15    16   ar
    24    16    17   ar
    25    17    18   ar
    26    18    19    1
    27     3     4   ar
    28     4     5   ar
    29     5     6   ar
    30     6     7   ar
    31     7     8   ar
    32     8     9   ar
    33     9    10   ar
    34    23    24   ar
    35    24    25   ar
    36    35    31    1
    37    25    20   ar
    38    10     2   ar
    39    18    12   ar
    40    10     5   ar
    41    26    29    1
@<TRIPOS>MOLECULE
*****
 37 41 0 0 0
SMALL
GASTEIGER

@<TRIPOS>ATOM
      1 C         140.7209  141.7875  165.2152 C.3     1  UNL1        0.1339
      2 N         140.3834  141.0262  166.4628 N.ar    1  UNL1       -0.3104
      3 C         139.1350  140.2287  166.6984 C.ar    1  UNL1        0.1250
      4 N         139.2151  139.6384  168.0751 N.ar    1  UNL1       -0.2306
      5 C         140.5130  140.0711  168.6902 C.ar    1  UNL1        0.0983
      6 C         141.1306  139.7948  170.0289 C.ar    1  UNL1        0.0206
      7 C         142.4702  140.3763  170.3711 C.ar    1  UNL1        0.0016
      8 C         143.1923  141.2340  169.3747 C.ar    1  UNL1        0.0016
      9 C         142.5747  141.5103  168.0360 C.ar    1  UNL1        0.0188
     10 C         141.2350  140.9288  167.6937 C.ar    1  UNL1        0.0789
     11 C         138.0049  140.0525  165.7279 C.3     1  UNL1        0.0919
     12 C         138.2727  139.5093  164.3556 C.ar    1  UNL1        0.0065
     13 C         138.8842  138.1493  164.1935 C.ar    1  UNL1        0.0549
     14 CL        139.2281  137.3324  165.4036 Cl      1  UNL1       -0.0825
     15 C         139.1520  137.6061  162.8211 C.ar    1  UNL1        0.0111
     16 C         138.8082  138.4230  161.6110 C.ar    1  UNL1        0.0017
     17 C         138.1966  139.7830  161.7731 C.ar    1  UNL1        0.0111
     18 C         137.9289  140.3262  163.1454 C.ar    1  UNL1        0.0549
     19 CL        137.3173  141.6862  163.3075 Cl      1  UNL1       -0.0825
     20 C         142.4260  139.6289  161.6539 C.ar    1  UNL1        0.0533
     21 C         141.7382  140.9494  161.4719 C.ar    1  UNL1        0.0042
     22 C         141.1699  141.6690  162.6589 C.ar    1  UNL1       -0.0022
     23 C         141.2892  141.0681  164.0281 C.ar    1  UNL1        0.0004
     24 C         141.9771  139.7475  164.2101 C.ar    1  UNL1       -0.0022
     25 C         142.5454  139.0279  163.0230 C.ar    1  UNL1        0.0042
     26 N         142.0765  138.3127  159.4413 N.am    1  UNL1       -0.2995
     27 C         142.9944  138.9094  160.4668 C.2     1  UNL1        0.2459
     28 O         144.4806  138.7864  160.3052 O.2     1  UNL1       -0.2701
     29 H         141.1011  138.3933  159.5473 H       1  UNL1        0.1498
     30 C         142.6449  137.5931  158.2542 C.3     1  UNL1        0.1056
     31 N         143.8599  137.7996  155.8823 N.3     1  UNL1       -0.2724
     32 C         144.2242  138.9351  154.9724 C.3     1  UNL1        0.0721
     33 C         143.7661  140.2102  155.6163 C.3     1  UNL1        0.0188
     34 C         143.1187  139.8627  156.9240 C.3     1  UNL1        0.0191
     35 C         143.1767  138.3728  157.0884 C.3     1  UNL1        0.0772
     36 C         143.1633  135.5312  154.8245 C.3     1  UNL1        0.0188
     37 C         144.1311  136.3460  155.6303 C.3     1  UNL1        0.0721
@<TRIPOS>BOND
     1    36    37    1
     2    37    31    1
     3    31    32    1
     4    32    33    1
     5    33    34    1
     6    34    35    1
     7    35    30    1
     8    30    26    1
     9    26    27   am
    10    27    28    2
    11    27    20    1
    12    20    21   ar
    13    21    22   ar
    14    22    23   ar
    15    23     1    1
    16     1     2    1
    17     2     3   ar
    18     3    11    1
    19    11    12    1
    20    12    13   ar
    21    13    14    1
    22    13    15   ar
    23    15    16   ar
    24    16    17   ar
    25    17    18   ar
    26    18    19    1
    27     3     4   ar
    28     4     5   ar
    29     5     6   ar
    30     6     7   ar
    31     7     8   ar
    32     8     9   ar
    33     9    10   ar
    34    23    24   ar
    35    24    25   ar
    36    35    31    1
    37    25    20   ar
    38    10     2   ar
    39    18    12   ar
    40    10     5   ar
    41    26    29    1
@<TRIPOS>MOLECULE
*****
 37 41 0 0 0
SMALL
GASTEIGER

@<TRIPOS>ATOM
      1 C         140.6194  141.9777  165.0369 C.3     1  UNL1        0.1339
      2 N         140.3796  141.1412  166.2587 N.ar    1  UNL1       -0.3104
      3 C         139.2117  140.2280  166.4868 C.ar    1  UNL1        0.1250
      4 N         139.3760  139.5936  167.8360 N.ar    1  UNL1       -0.2306
      5 C         140.6454  140.1146  168.4418 C.ar    1  UNL1        0.0983
      6 C         141.3167  139.8417  169.7552 C.ar    1  UNL1        0.0206
      7 C         142.6082  140.5253  170.0937 C.ar    1  UNL1        0.0016
      8 C         143.2285  141.4818  169.1188 C.ar    1  UNL1        0.0016
      9 C         142.5573  141.7547  167.8055 C.ar    1  UNL1        0.0188
     10 C         141.2657  141.0712  167.4670 C.ar    1  UNL1        0.0789
     11 C         138.0785  139.9909  165.5330 C.3     1  UNL1        0.0919
     12 C         138.3526  139.4426  164.1641 C.ar    1  UNL1        0.0065
     13 C         137.9149  140.2056  162.9490 C.ar    1  UNL1        0.0549
     14 CL        137.2030  141.5169  163.1030 Cl      1  UNL1       -0.0825
     15 C         138.1890  139.6571  161.5800 C.ar    1  UNL1        0.0111
     16 C         138.9008  138.3458  161.4261 C.ar    1  UNL1        0.0017
     17 C         139.3386  137.5829  162.6411 C.ar    1  UNL1        0.0111
     18 C         139.0644  138.1312  164.0101 C.ar    1  UNL1        0.0549
     19 CL        139.5022  137.3683  165.2251 Cl      1  UNL1       -0.0825
     20 C         142.2825  140.0879  161.3069 C.ar    1  UNL1        0.0533
     21 C         142.5497  139.4665  162.6457 C.ar    1  UNL1        0.0042
     22 C         141.9953  140.0964  163.8891 C.ar    1  UNL1       -0.0022
     23 C         141.1738  141.3478  163.7936 C.ar    1  UNL1        0.0004
     24 C         140.9066  141.9692  162.4547 C.ar    1  UNL1       -0.0022
     25 C         141.4609  141.3393  161.2114 C.ar    1  UNL1        0.0042
     26 N         141.9994  139.3877  158.8210 N.am    1  UNL1       -0.2995
     27 C         142.8368  139.4580  160.0636 C.2     1  UNL1        0.2459
     28 O         144.2285  138.8984  160.0627 O.2     1  UNL1       -0.2701
     29 H         141.0860  139.7550  158.8215 H       1  UNL1        0.1498
     30 C         142.5538  138.7578  157.5776 C.3     1  UNL1        0.1056
     31 N         142.1379  136.5122  156.1887 N.3     1  UNL1       -0.2724
     32 C         140.9720  135.9203  155.4535 C.3     1  UNL1        0.0721
     33 C         139.8169  136.8695  155.5755 C.3     1  UNL1        0.0188
     34 C         140.2688  138.0480  156.3860 C.3     1  UNL1        0.0191
     35 C         141.7032  137.8272  156.7650 C.3     1  UNL1        0.0772
     36 C         143.6462  134.5197  156.8990 C.3     1  UNL1        0.0188
     37 C         143.4993  135.8972  156.3238 C.3     1  UNL1        0.0721
@<TRIPOS>BOND
     1    36    37    1
     2    37    31    1
     3    31    32    1
     4    32    33    1
     5    33    34    1
     6    34    35    1
     7    35    30    1
     8    30    26    1
     9    26    27   am
    10    27    28    2
    11    27    20    1
    12    20    21   ar
    13    21    22   ar
    14    22    23   ar
    15    23     1    1
    16     1     2    1
    17     2     3   ar
    18     3    11    1
    19    11    12    1
    20    12    13   ar
    21    13    14    1
    22    13    15   ar
    23    15    16   ar
    24    16    17   ar
    25    17    18   ar
    26    18    19    1
    27     3     4   ar
    28     4     5   ar
    29     5     6   ar
    30     6     7   ar
    31     7     8   ar
    32     8     9   ar
    33     9    10   ar
    34    23    24   ar
    35    24    25   ar
    36    35    31    1
    37    25    20   ar
    38    10     2   ar
    39    18    12   ar
    40    10     5   ar
    41    26    29    1
@<TRIPOS>MOLECULE
*****
 37 41 0 0 0
SMALL
GASTEIGER

@<TRIPOS>ATOM
      1 C         140.4916  142.1129  165.1527 C.3     1  UNL1        0.1339
      2 N         140.3394  141.2096  166.3405 N.ar    1  UNL1       -0.3104
      3 C         139.2515  140.1972  166.5445 C.ar    1  UNL1        0.1250
      4 N         139.4881  139.5220  167.8629 N.ar    1  UNL1       -0.2306
      5 C         140.7222  140.1171  168.4736 C.ar    1  UNL1        0.0983
      6 C         141.4348  139.8439  169.7649 C.ar    1  UNL1        0.0206
      7 C         142.6735  140.6138  170.1153 C.ar    1  UNL1        0.0016
      8 C         143.1996  141.6568  169.1744 C.ar    1  UNL1        0.0016
      9 C         142.4870  141.9299  167.8831 C.ar    1  UNL1        0.0188
     10 C         141.2483  141.1601  167.5327 C.ar    1  UNL1        0.0789
     11 C         138.1249  139.9104  165.5966 C.3     1  UNL1        0.0919
     12 C         138.4192  139.4899  164.1872 C.ar    1  UNL1        0.0065
     13 C         139.1586  138.2115  163.9249 C.ar    1  UNL1        0.0549
     14 CL        139.6038  137.3536  165.0719 Cl      1  UNL1       -0.0825
     15 C         139.4529  137.7910  162.5153 C.ar    1  UNL1        0.0111
     16 C         139.0077  138.6489  161.3683 C.ar    1  UNL1        0.0017
     17 C         138.2683  139.9273  161.6307 C.ar    1  UNL1        0.0111
     18 C         137.9740  140.3479  163.0401 C.ar    1  UNL1        0.0549
     19 CL        137.2345  141.6263  163.3025 Cl      1  UNL1       -0.0825
     20 C         142.5072  140.6052  161.4226 C.ar    1  UNL1        0.0533
     21 C         142.6664  139.8600  162.7146 C.ar    1  UNL1        0.0042
     22 C         141.9946  140.3626  163.9580 C.ar    1  UNL1       -0.0022
     23 C         141.1635  141.6104  163.9094 C.ar    1  UNL1        0.0004
     24 C         141.0043  142.3556  162.6173 C.ar    1  UNL1       -0.0022
     25 C         141.6762  141.8530  161.3739 C.ar    1  UNL1        0.0042
     26 N         142.8047  140.6710  158.8423 N.am    1  UNL1       -0.2995
     27 C         143.1791  140.1027  160.1792 C.2     1  UNL1        0.2459
     28 O         144.2253  139.0318  160.2725 O.2     1  UNL1       -0.2701
     29 H         142.1180  141.3738  158.7811 H       1  UNL1        0.1498
     30 C         143.4765  140.1684  157.5989 C.3     1  UNL1        0.1056
     31 N         145.4878  140.4614  155.8629 N.3     1  UNL1       -0.2724
     32 C         146.6257  141.4269  155.7111 C.3     1  UNL1        0.0721
     33 C         146.5414  142.4223  156.8301 C.3     1  UNL1        0.0188
     34 C         145.3515  142.0721  157.6735 C.3     1  UNL1        0.0191
     35 C         144.7003  140.8602  157.0758 C.3     1  UNL1        0.0772
     36 C         144.5555  139.5358  153.6216 C.3     1  UNL1        0.0188
     37 C         145.1898  139.3010  154.9604 C.3     1  UNL1        0.0721
@<TRIPOS>BOND
     1    36    37    1
     2    37    31    1
     3    31    32    1
     4    32    33    1
     5    33    34    1
     6    34    35    1
     7    35    30    1
     8    30    26    1
     9    26    27   am
    10    27    28    2
    11    27    20    1
    12    20    21   ar
    13    21    22   ar
    14    22    23   ar
    15    23     1    1
    16     1     2    1
    17     2     3   ar
    18     3    11    1
    19    11    12    1
    20    12    13   ar
    21    13    14    1
    22    13    15   ar
    23    15    16   ar
    24    16    17   ar
    25    17    18   ar
    26    18    19    1
    27     3     4   ar
    28     4     5   ar
    29     5     6   ar
    30     6     7   ar
    31     7     8   ar
    32     8     9   ar
    33     9    10   ar
    34    23    24   ar
    35    24    25   ar
    36    35    31    1
    37    25    20   ar
    38    10     2   ar
    39    18    12   ar
    40    10     5   ar
    41    26    29    1
@<TRIPOS>MOLECULE
*****
 37 41 0 0 0
SMALL
GASTEIGER

@<TRIPOS>ATOM
      1 C         139.4885  141.3158  166.0506 C.3     1  UNL1        0.1339
      2 N         140.7007  140.9388  166.8495 N.ar    1  UNL1       -0.3104
      3 C         141.6040  139.7712  166.5833 C.ar    1  UNL1        0.1250
      4 N         142.6840  139.7740  167.6242 N.ar    1  UNL1       -0.2306
      5 C         142.4483  140.9432  168.5337 C.ar    1  UNL1        0.0983
      6 C         143.1914  141.4454  169.7360 C.ar    1  UNL1        0.0206
      7 C         142.7088  142.6676  170.4595 C.ar    1  UNL1        0.0016
      8 C         141.4830  143.3875  169.9807 C.ar    1  UNL1        0.0016
      9 C         140.7399  142.8853  168.7784 C.ar    1  UNL1        0.0188
     10 C         141.2225  141.6632  168.0549 C.ar    1  UNL1        0.0789
     11 C         141.4536  138.7756  165.4715 C.3     1  UNL1        0.0919
     12 C         141.2240  139.2490  164.0668 C.ar    1  UNL1        0.0065
     13 C         142.2850  140.0379  163.3583 C.ar    1  UNL1        0.0549
     14 CL        143.5756  140.3534  164.0545 Cl      1  UNL1       -0.0825
     15 C         142.0553  140.5113  161.9536 C.ar    1  UNL1        0.0111
     16 C         140.7647  140.1959  161.2574 C.ar    1  UNL1        0.0017
     17 C         139.7037  139.4070  161.9659 C.ar    1  UNL1        0.0111
     18 C         139.9333  138.9336  163.3705 C.ar    1  UNL1        0.0549
     19 CL        138.8723  138.1447  164.0790 Cl      1  UNL1       -0.0825
     20 C         139.8884  144.0837  162.5251 C.ar    1  UNL1        0.0533
     21 C         141.0038  143.9728  163.5219 C.ar    1  UNL1        0.0042
     22 C         140.8705  143.0502  164.6971 C.ar    1  UNL1       -0.0022
     23 C         139.6218  142.2384  164.8755 C.ar    1  UNL1        0.0004
     24 C         138.5064  142.3493  163.8786 C.ar    1  UNL1       -0.0022
     25 C         138.6397  143.2719  162.7034 C.ar    1  UNL1        0.0042
     26 N         140.9634  144.6666  160.2328 N.am    1  UNL1       -0.2995
     27 C         140.0217  145.0063  161.3499 C.2     1  UNL1        0.2459
     28 O         139.2133  146.2685  161.2919 O.2     1  UNL1       -0.2701
     29 H         141.4940  143.8382  160.2709 H       1  UNL1        0.1498
     30 C         141.0967  145.5892  159.0576 C.3     1  UNL1        0.1056
     31 N         139.6331  144.0639  157.4216 N.3     1  UNL1       -0.2724
     32 C         138.9062  144.2891  156.1290 C.3     1  UNL1        0.0721
     33 C         139.0949  145.7242  155.7350 C.3     1  UNL1        0.0188
     34 C         139.9384  146.3859  156.7841 C.3     1  UNL1        0.0191
     35 C         140.2711  145.3598  157.8265 C.3     1  UNL1        0.0772
     36 C         138.5496  142.3235  159.0174 C.3     1  UNL1        0.0188
     37 C         139.7088  142.7702  158.1768 C.3     1  UNL1        0.0721
@<TRIPOS>BOND
     1    36    37    1
     2    37    31    1
     3    31    32    1
     4    32    33    1
     5    33    34    1
     6    34    35    1
     7    35    30    1
     8    30    26    1
     9    26    27   am
    10    27    28    2
    11    27    20    1
    12    20    21   ar
    13    21    22   ar
    14    22    23   ar
    15    23     1    1
    16     1     2    1
    17     2     3   ar
    18     3    11    1
    19    11    12    1
    20    12    13   ar
    21    13    14    1
    22    13    15   ar
    23    15    16   ar
    24    16    17   ar
    25    17    18   ar
    26    18    19    1
    27     3     4   ar
    28     4     5   ar
    29     5     6   ar
    30     6     7   ar
    31     7     8   ar
    32     8     9   ar
    33     9    10   ar
    34    23    24   ar
    35    24    25   ar
    36    35    31    1
    37    25    20   ar
    38    10     2   ar
    39    18    12   ar
    40    10     5   ar
    41    26    29    1
@<TRIPOS>MOLECULE
*****
 37 41 0 0 0
SMALL
GASTEIGER

@<TRIPOS>ATOM
      1 C         139.5537  143.1186  166.0160 C.3     1  UNL1        0.1339
      2 N         139.9668  141.8193  166.6414 N.ar    1  UNL1       -0.3104
      3 C         139.3287  140.4831  166.4016 C.ar    1  UNL1        0.1250
      4 N         140.0582  139.4661  167.2284 N.ar    1  UNL1       -0.2306
      5 C         141.1471  140.1737  167.9791 C.ar    1  UNL1        0.0983
      6 C         142.1828  139.6816  168.9461 C.ar    1  UNL1        0.0206
      7 C         143.1620  140.6439  169.5503 C.ar    1  UNL1        0.0016
      8 C         143.1055  142.0982  169.1875 C.ar    1  UNL1        0.0016
      9 C         142.0699  142.5903  168.2205 C.ar    1  UNL1        0.0188
     10 C         141.0907  141.6281  167.6163 C.ar    1  UNL1        0.0789
     11 C         138.1654  140.2117  165.4944 C.3     1  UNL1        0.0919
     12 C         138.4032  139.8350  164.0621 C.ar    1  UNL1        0.0065
     13 C         137.9717  140.7589  162.9621 C.ar    1  UNL1        0.0549
     14 CL        137.3024  142.0595  163.2943 Cl      1  UNL1       -0.0825
     15 C         138.2095  140.3822  161.5297 C.ar    1  UNL1        0.0111
     16 C         138.8788  139.0815  161.1975 C.ar    1  UNL1        0.0017
     17 C         139.3103  138.1576  162.2976 C.ar    1  UNL1        0.0111
     18 C         139.0725  138.5343  163.7299 C.ar    1  UNL1        0.0549
     19 CL        139.5040  137.6104  164.8299 Cl      1  UNL1       -0.0825
     20 C         140.9304  144.1533  161.8587 C.ar    1  UNL1        0.0533
     21 C         141.4282  142.9049  162.5246 C.ar    1  UNL1        0.0042
     22 C         140.9693  142.5599  163.9104 C.ar    1  UNL1       -0.0022
     23 C         140.0126  143.4635  164.6303 C.ar    1  UNL1        0.0004
     24 C         139.5148  144.7120  163.9643 C.ar    1  UNL1       -0.0022
     25 C         139.9737  145.0570  162.5785 C.ar    1  UNL1        0.0042
     26 N         140.5778  145.4324  159.6248 N.am    1  UNL1       -0.2995
     27 C         141.3893  144.4983  160.4729 C.2     1  UNL1        0.2459
     28 O         142.6597  143.9092  159.9351 O.2     1  UNL1       -0.2701
     29 H         139.7440  145.8190  159.9778 H       1  UNL1        0.1498
     30 C         141.0367  145.7773  158.2390 C.3     1  UNL1        0.1056
     31 N         139.3699  144.4963  156.5880 N.3     1  UNL1       -0.2724
     32 C         138.5007  144.9009  155.4344 C.3     1  UNL1        0.0721
     33 C         138.6636  146.3776  155.2270 C.3     1  UNL1        0.0188
     34 C         139.6334  146.8856  156.2523 C.3     1  UNL1        0.0191
     35 C         140.0699  145.7230  157.0935 C.3     1  UNL1        0.0772
     36 C         138.7141  142.6913  158.3377 C.3     1  UNL1        0.0188
     37 C         139.5139  143.1088  157.1394 C.3     1  UNL1        0.0721
@<TRIPOS>BOND
     1    36    37    1
     2    37    31    1
     3    31    32    1
     4    32    33    1
     5    33    34    1
     6    34    35    1
     7    35    30    1
     8    30    26    1
     9    26    27   am
    10    27    28    2
    11    27    20    1
    12    20    21   ar
    13    21    22   ar
    14    22    23   ar
    15    23     1    1
    16     1     2    1
    17     2     3   ar
    18     3    11    1
    19    11    12    1
    20    12    13   ar
    21    13    14    1
    22    13    15   ar
    23    15    16   ar
    24    16    17   ar
    25    17    18   ar
    26    18    19    1
    27     3     4   ar
    28     4     5   ar
    29     5     6   ar
    30     6     7   ar
    31     7     8   ar
    32     8     9   ar
    33     9    10   ar
    34    23    24   ar
    35    24    25   ar
    36    35    31    1
    37    25    20   ar
    38    10     2   ar
    39    18    12   ar
    40    10     5   ar
    41    26    29    1
@<TRIPOS>MOLECULE
*****
 37 41 0 0 0
SMALL
GASTEIGER

@<TRIPOS>ATOM
      1 C         139.5410  139.5190  166.8215 C.3     1  UNL1        0.1339
      2 N         140.7300  139.8771  167.6631 N.ar    1  UNL1       -0.3104
      3 C         142.1485  139.4622  167.4070 C.ar    1  UNL1        0.1250
      4 N         143.0043  140.0417  168.4941 N.ar    1  UNL1       -0.2306
      5 C         142.1147  140.8147  169.4220 C.ar    1  UNL1        0.0983
      6 C         142.4030  141.5981  170.6683 C.ar    1  UNL1        0.0206
      7 C         141.2856  142.2797  171.4009 C.ar    1  UNL1        0.0016
      8 C         139.8799  142.1779  170.8873 C.ar    1  UNL1        0.0016
      9 C         139.5917  141.3946  169.6411 C.ar    1  UNL1        0.0188
     10 C         140.7090  140.7130  168.9084 C.ar    1  UNL1        0.0789
     11 C         142.6272  138.6164  166.2644 C.3     1  UNL1        0.0919
     12 C         142.3917  139.0616  164.8515 C.ar    1  UNL1        0.0065
     13 C         141.6350  138.1794  163.9034 C.ar    1  UNL1        0.0549
     14 CL        141.1137  136.8519  164.3681 Cl      1  UNL1       -0.0825
     15 C         141.3995  138.6247  162.4904 C.ar    1  UNL1        0.0111
     16 C         141.9208  139.9522  162.0257 C.ar    1  UNL1        0.0017
     17 C         142.6775  140.8344  162.9738 C.ar    1  UNL1        0.0111
     18 C         142.9130  140.3892  164.3867 C.ar    1  UNL1        0.0549
     19 CL        143.6697  141.2715  165.3349 Cl      1  UNL1       -0.0825
     20 C         138.6864  141.8090  163.0433 C.ar    1  UNL1        0.0533
     21 C         139.4799  142.4478  164.1443 C.ar    1  UNL1        0.0042
     22 C         139.7648  141.6845  165.4037 C.ar    1  UNL1       -0.0022
     23 C         139.2562  140.2823  165.5622 C.ar    1  UNL1        0.0004
     24 C         138.4626  139.6435  164.4611 C.ar    1  UNL1       -0.0022
     25 C         138.1777  140.4068  163.2017 C.ar    1  UNL1        0.0042
     26 N         138.7710  141.9878  160.4527 N.am    1  UNL1       -0.2995
     27 C         138.4015  142.5723  161.7839 C.2     1  UNL1        0.2459
     28 O         137.7470  143.9201  161.8555 O.2     1  UNL1       -0.2701
     29 H         139.2005  141.1031  160.4057 H       1  UNL1        0.1498
     30 C         138.4861  142.7511  159.1933 C.3     1  UNL1        0.1056
     31 N         140.5524  144.4076  158.8307 N.3     1  UNL1       -0.2724
     32 C         141.5247  144.6625  157.7173 C.3     1  UNL1        0.0721
     33 C         141.1903  143.7334  156.5881 C.3     1  UNL1        0.0188
     34 C         140.0114  142.9043  157.0035 C.3     1  UNL1        0.0191
     35 C         139.6171  143.3209  158.3895 C.3     1  UNL1        0.0772
     36 C         141.4134  144.6592  161.2689 C.3     1  UNL1        0.0188
     37 C         140.5208  145.1150  160.1530 C.3     1  UNL1        0.0721
@<TRIPOS>BOND
     1    36    37    1
     2    37    31    1
     3    31    32    1
     4    32    33    1
     5    33    34    1
     6    34    35    1
     7    35    30    1
     8    30    26    1
     9    26    27   am
    10    27    28    2
    11    27    20    1
    12    20    21   ar
    13    21    22   ar
    14    22    23   ar
    15    23     1    1
    16     1     2    1
    17     2     3   ar
    18     3    11    1
    19    11    12    1
    20    12    13   ar
    21    13    14    1
    22    13    15   ar
    23    15    16   ar
    24    16    17   ar
    25    17    18   ar
    26    18    19    1
    27     3     4   ar
    28     4     5   ar
    29     5     6   ar
    30     6     7   ar
    31     7     8   ar
    32     8     9   ar
    33     9    10   ar
    34    23    24   ar
    35    24    25   ar
    36    35    31    1
    37    25    20   ar
    38    10     2   ar
    39    18    12   ar
    40    10     5   ar
    41    26    29    1
