@<TRIPOS>MOLECULE
*****
 29 32 0 0 0
SMALL
GASTEIGER

@<TRIPOS>ATOM
      1 C         140.7242  140.0367  168.1037 C.ar    1  UNL1        0.1068
      2 C         142.1394  139.6618  168.4299 C.ar    1  UNL1        0.0867
      3 C         143.0510  139.1616  167.3489 C.ar    1  UNL1        0.0374
      4 C         142.5474  139.0363  165.9415 C.ar    1  UNL1        0.1143
      5 N         141.1321  139.4112  165.6152 N.ar    1  UNL1       -0.2782
      6 C         140.2205  139.9114  166.6963 C.ar    1  UNL1        0.1582
      7 N         138.8851  140.2030  166.0784 N.ar    1  UNL1       -0.2257
      8 C         138.9714  139.8830  164.6155 C.ar    1  UNL1        0.0999
      9 C         137.9649  139.9740  163.5071 C.ar    1  UNL1        0.0329
     10 C         138.3471  139.5757  162.1124 C.ar    1  UNL1        0.0698
     11 CL        137.3406  139.6667  161.0039 Cl      1  UNL1       -0.0813
     12 C         139.7359  139.0863  161.8261 C.ar    1  UNL1        0.0697
     13 CL        140.1181  138.6880  160.4313 Cl      1  UNL1       -0.0813
     14 C         140.7424  138.9953  162.9345 C.ar    1  UNL1        0.0314
     15 C         140.3602  139.3936  164.3292 C.ar    1  UNL1        0.0850
     16 C         142.6431  139.7871  169.8373 C.3     1  UNL1        0.4194
     17 F         143.1467  139.9125  171.2447 F       1  UNL1       -0.1658
     18 F         142.2222  138.3741  170.1137 F       1  UNL1       -0.1658
     19 F         143.0639  141.2001  169.5609 F       1  UNL1       -0.1658
     20 N         138.9008  141.0370  170.2658 N.1     1  UNL1       -0.1907
     21 C         139.8125  140.5369  169.1848 C.1     1  UNL1        0.1034
     22 N         143.4591  138.5361  164.8604 N.pl3   1  UNL1       -0.3151
     23 H         143.2121  137.7391  164.3378 H       1  UNL1        0.1485
     24 C         144.7471  139.2502  164.5756 C.3     1  UNL1        0.1219
     25 C         144.7857  140.3486  163.5547 C.ar    1  UNL1        0.0270
     26 C         145.3819  141.7114  163.7480 C.ar    1  UNL1        0.0044
     27 C         145.1996  142.4821  162.4742 C.ar    1  UNL1        0.0072
     28 C         144.4907  141.5956  161.4935 C.ar    1  UNL1        0.0352
     29 S         144.2349  140.2770  162.1613 S.2     1  UNL1       -0.0891
@<TRIPOS>BOND
     1    20    21    3
     2    21     1    1
     3     1     2   ar
     4     2    16    1
     5    16    17    1
     6    16    18    1
     7    16    19    1
     8     2     3   ar
     9     3     4   ar
    10     4    22    1
    11    22    24    1
    12    24    25    1
    13    25    26   ar
    14    26    27   ar
    15    27    28   ar
    16    28    29   ar
    17     4     5   ar
    18     5     6   ar
    19     6     7   ar
    20     7     8   ar
    21     8     9   ar
    22     9    10   ar
    23    10    11    1
    24    10    12   ar
    25    12    13    1
    26    12    14   ar
    27    14    15   ar
    28     6     1   ar
    29    15     8   ar
    30    29    25   ar
    31    15     5   ar
    32    22    23    1
@<TRIPOS>MOLECULE
*****
 29 32 0 0 0
SMALL
GASTEIGER

@<TRIPOS>ATOM
      1 C         140.9492  140.9926  168.3872 C.ar    1  UNL1        0.1068
      2 C         141.9914  142.0690  168.4596 C.ar    1  UNL1        0.0867
      3 C         142.5477  142.6603  167.1984 C.ar    1  UNL1        0.0374
      4 C         142.0620  142.1752  165.8647 C.ar    1  UNL1        0.1143
      5 N         141.0198  141.0988  165.7922 N.ar    1  UNL1       -0.2782
      6 C         140.4635  140.5075  167.0535 C.ar    1  UNL1        0.1582
      7 N         139.4526  139.4674  166.6711 N.ar    1  UNL1       -0.2257
      8 C         139.3842  139.4159  165.1735 C.ar    1  UNL1        0.0999
      9 C         138.5650  138.5811  164.2344 C.ar    1  UNL1        0.0329
     10 C         138.7145  138.7546  162.7520 C.ar    1  UNL1        0.0698
     11 CL        137.8954  137.9198  161.8127 Cl      1  UNL1       -0.0813
     12 C         139.6832  139.7629  162.2088 C.ar    1  UNL1        0.0697
     13 CL        139.8327  139.9365  160.7263 Cl      1  UNL1       -0.0813
     14 C         140.5023  140.5977  163.1480 C.ar    1  UNL1        0.0314
     15 C         140.3528  140.4242  164.6304 C.ar    1  UNL1        0.0850
     16 C         142.4771  142.5541  169.7934 C.3     1  UNL1        0.4194
     17 F         142.9629  143.0392  171.1271 F       1  UNL1       -0.1658
     18 F         141.4160  143.6143  169.7942 F       1  UNL1       -0.1658
     19 F         143.5382  141.4938  169.7925 F       1  UNL1       -0.1658
     20 N         139.8365  139.8101  170.9098 N.1     1  UNL1       -0.1907
     21 C         140.3929  140.4013  169.6485 C.1     1  UNL1        0.1034
     22 N         142.6184  142.7666  164.6034 N.pl3   1  UNL1       -0.3151
     23 H         143.3582  142.3178  164.1338 H       1  UNL1        0.1485
     24 C         142.0476  144.0419  164.0576 C.3     1  UNL1        0.1219
     25 C         140.5610  144.2181  163.9630 C.ar    1  UNL1        0.0270
     26 C         139.6124  144.3405  165.1185 C.ar    1  UNL1        0.0044
     27 C         138.2271  144.5009  164.5660 C.ar    1  UNL1        0.0072
     28 C         138.3196  144.4776  163.0691 C.ar    1  UNL1        0.0352
     29 S         139.7620  144.3029  162.6964 S.2     1  UNL1       -0.0891
@<TRIPOS>BOND
     1    20    21    3
     2    21     1    1
     3     1     2   ar
     4     2    16    1
     5    16    17    1
     6    16    18    1
     7    16    19    1
     8     2     3   ar
     9     3     4   ar
    10     4    22    1
    11    22    24    1
    12    24    25    1
    13    25    26   ar
    14    26    27   ar
    15    27    28   ar
    16    28    29   ar
    17     4     5   ar
    18     5     6   ar
    19     6     7   ar
    20     7     8   ar
    21     8     9   ar
    22     9    10   ar
    23    10    11    1
    24    10    12   ar
    25    12    13    1
    26    12    14   ar
    27    14    15   ar
    28     6     1   ar
    29    15     8   ar
    30    29    25   ar
    31    15     5   ar
    32    22    23    1
@<TRIPOS>MOLECULE
*****
 29 32 0 0 0
SMALL
GASTEIGER

@<TRIPOS>ATOM
      1 C         140.1945  141.7549  168.0947 C.ar    1  UNL1        0.1068
      2 C         139.6387  140.4311  168.5286 C.ar    1  UNL1        0.0867
      3 C         139.0146  139.5128  167.5200 C.ar    1  UNL1        0.0374
      4 C         138.9464  139.9184  166.0775 C.ar    1  UNL1        0.1143
      5 N         139.5022  141.2423  165.6436 N.ar    1  UNL1       -0.2782
      6 C         140.1263  142.1606  166.6521 C.ar    1  UNL1        0.1582
      7 N         140.5869  143.3940  165.9335 N.ar    1  UNL1       -0.2257
      8 C         140.2475  143.2380  164.4807 C.ar    1  UNL1        0.0999
      9 C         140.4622  144.1351  163.2979 C.ar    1  UNL1        0.0329
     10 C         140.0066  143.7023  161.9359 C.ar    1  UNL1        0.0698
     11 CL        140.2213  144.5994  160.7530 Cl      1  UNL1       -0.0813
     12 C         139.3362  142.3725  161.7567 C.ar    1  UNL1        0.0697
     13 CL        138.8806  141.9397  160.3946 Cl      1  UNL1       -0.0813
     14 C         139.1215  141.4754  162.9395 C.ar    1  UNL1        0.0314
     15 C         139.5771  141.9082  164.3015 C.ar    1  UNL1        0.0850
     16 C         139.7069  140.0254  169.9711 C.3     1  UNL1        0.4194
     17 F         139.7752  139.6198  171.4136 F       1  UNL1       -0.1658
     18 F         138.3384  140.5967  170.1965 F       1  UNL1       -0.1658
     19 F         141.0755  139.4542  169.7458 F       1  UNL1       -0.1658
     20 N         141.4428  143.5914  170.1120 N.1     1  UNL1       -0.1907
     21 C         140.8186  142.6732  169.1033 C.1     1  UNL1        0.1034
     22 N         138.3222  139.0000  165.0689 N.pl3   1  UNL1       -0.3151
     23 H         137.4318  139.2042  164.7018 H       1  UNL1        0.1485
     24 C         139.0548  137.7706  164.6196 C.3     1  UNL1        0.1219
     25 C         140.2283  137.8934  163.6934 C.ar    1  UNL1        0.0270
     26 C         141.6664  138.0114  164.1032 C.ar    1  UNL1        0.0044
     27 C         142.4967  138.1106  162.8579 C.ar    1  UNL1        0.0072
     28 C         141.5717  138.0539  161.6785 C.ar    1  UNL1        0.0352
     29 S         140.1698  137.9197  162.1948 S.2     1  UNL1       -0.0891
@<TRIPOS>BOND
     1    20    21    3
     2    21     1    1
     3     1     2   ar
     4     2    16    1
     5    16    17    1
     6    16    18    1
     7    16    19    1
     8     2     3   ar
     9     3     4   ar
    10     4    22    1
    11    22    24    1
    12    24    25    1
    13    25    26   ar
    14    26    27   ar
    15    27    28   ar
    16    28    29   ar
    17     4     5   ar
    18     5     6   ar
    19     6     7   ar
    20     7     8   ar
    21     8     9   ar
    22     9    10   ar
    23    10    11    1
    24    10    12   ar
    25    12    13    1
    26    12    14   ar
    27    14    15   ar
    28     6     1   ar
    29    15     8   ar
    30    29    25   ar
    31    15     5   ar
    32    22    23    1
@<TRIPOS>MOLECULE
*****
 29 32 0 0 0
SMALL
GASTEIGER

@<TRIPOS>ATOM
      1 C         143.4158  140.3428  163.8843 C.ar    1  UNL1        0.1068
      2 C         142.7737  139.3907  162.9193 C.ar    1  UNL1        0.0867
      3 C         141.4915  138.7034  163.2848 C.ar    1  UNL1        0.0374
      4 C         140.8514  138.9681  164.6153 C.ar    1  UNL1        0.1143
      5 N         141.4935  139.9202  165.5803 N.ar    1  UNL1       -0.2782
      6 C         142.7757  140.6075  165.2148 C.ar    1  UNL1        0.1582
      7 N         143.1729  141.4881  166.3623 N.ar    1  UNL1       -0.2257
      8 C         142.1363  141.3449  167.4370 C.ar    1  UNL1        0.0999
      9 C         142.0034  141.9718  168.7932 C.ar    1  UNL1        0.0329
     10 C         140.8326  141.6296  169.6661 C.ar    1  UNL1        0.0698
     11 CL        140.6997  142.2564  171.0224 Cl      1  UNL1       -0.0813
     12 C         139.7946  140.6606  169.1828 C.ar    1  UNL1        0.0697
     13 CL        138.6237  140.3184  170.0557 Cl      1  UNL1       -0.0813
     14 C         139.9275  140.0338  167.8265 C.ar    1  UNL1        0.0314
     15 C         141.0983  140.3759  166.9537 C.ar    1  UNL1        0.0850
     16 C         143.4138  139.1260  161.5888 C.3     1  UNL1        0.4194
     17 F         144.0539  138.8612  160.2583 F       1  UNL1       -0.1658
     18 F         142.6544  140.2751  160.9948 F       1  UNL1       -0.1658
     19 F         144.1732  137.9769  162.1828 F       1  UNL1       -0.1658
     20 N         145.9801  141.7176  163.1533 N.1     1  UNL1       -0.1907
     21 C         144.6979  141.0301  163.5188 C.1     1  UNL1        0.1034
     22 N         139.5691  138.2808  164.9807 N.pl3   1  UNL1       -0.3151
     23 H         139.5753  137.3292  165.2331 H       1  UNL1        0.1485
     24 C         138.2776  139.0433  164.9616 C.3     1  UNL1        0.1219
     25 C         138.1738  140.3233  164.1864 C.ar    1  UNL1        0.0270
     26 C         138.3280  141.7070  164.7444 C.ar    1  UNL1        0.0044
     27 C         138.1472  142.6832  163.6200 C.ar    1  UNL1        0.0072
     28 C         137.8812  141.9027  162.3669 C.ar    1  UNL1        0.0352
     29 S         137.8976  140.4442  162.7170 S.2     1  UNL1       -0.0891
@<TRIPOS>BOND
     1    20    21    3
     2    21     1    1
     3     1     2   ar
     4     2    16    1
     5    16    17    1
     6    16    18    1
     7    16    19    1
     8     2     3   ar
     9     3     4   ar
    10     4    22    1
    11    22    24    1
    12    24    25    1
    13    25    26   ar
    14    26    27   ar
    15    27    28   ar
    16    28    29   ar
    17     4     5   ar
    18     5     6   ar
    19     6     7   ar
    20     7     8   ar
    21     8     9   ar
    22     9    10   ar
    23    10    11    1
    24    10    12   ar
    25    12    13    1
    26    12    14   ar
    27    14    15   ar
    28     6     1   ar
    29    15     8   ar
    30    29    25   ar
    31    15     5   ar
    32    22    23    1
@<TRIPOS>MOLECULE
*****
 29 32 0 0 0
SMALL
GASTEIGER

@<TRIPOS>ATOM
      1 C         141.1965  142.2306  168.2986 C.ar    1  UNL1        0.1068
      2 C         142.0033  141.0705  168.8017 C.ar    1  UNL1        0.0867
      3 C         142.6238  140.1109  167.8300 C.ar    1  UNL1        0.0374
      4 C         142.4375  140.3115  166.3552 C.ar    1  UNL1        0.1143
      5 N         141.6308  141.4717  165.8521 N.ar    1  UNL1       -0.2782
      6 C         141.0103  142.4312  166.8238 C.ar    1  UNL1        0.1582
      7 N         140.2733  143.4749  166.0380 N.ar    1  UNL1       -0.2257
      8 C         140.4383  143.1604  164.5806 C.ar    1  UNL1        0.0999
      9 C         139.9329  143.8415  163.3434 C.ar    1  UNL1        0.0329
     10 C         140.2666  143.2844  161.9912 C.ar    1  UNL1        0.0698
     11 CL        139.7613  143.9654  160.7539 Cl      1  UNL1       -0.0813
     12 C         141.1056  142.0463  161.8764 C.ar    1  UNL1        0.0697
     13 CL        141.4393  141.4892  160.5241 Cl      1  UNL1       -0.0813
     14 C         141.6109  141.3653  163.1136 C.ar    1  UNL1        0.0314
     15 C         141.2773  141.9223  164.4657 C.ar    1  UNL1        0.0850
     16 C         142.1895  140.8699  170.2766 C.3     1  UNL1        0.4194
     17 F         142.3758  140.6693  171.7514 F       1  UNL1       -0.1658
     18 F         140.9210  140.0710  170.3281 F       1  UNL1       -0.1658
     19 F         143.4581  141.6687  170.2250 F       1  UNL1       -0.1658
     20 N         139.9556  144.1497  170.2421 N.1     1  UNL1       -0.1907
     21 C         140.5760  143.1902  169.2703 C.1     1  UNL1        0.1034
     22 N         143.0581  139.3519  165.3835 N.pl3   1  UNL1       -0.3151
     23 H         143.8805  139.6008  164.9030 H       1  UNL1        0.1485
     24 C         142.4254  138.0131  165.1439 C.3     1  UNL1        0.1219
     25 C         141.1571  137.9144  164.3492 C.ar    1  UNL1        0.0270
     26 C         139.7643  138.0333  164.8933 C.ar    1  UNL1        0.0044
     27 C         138.8052  137.8720  163.7513 C.ar    1  UNL1        0.0072
     28 C         139.6052  137.6534  162.5015 C.ar    1  UNL1        0.0352
     29 S         141.0588  137.6796  162.8710 S.2     1  UNL1       -0.0891
@<TRIPOS>BOND
     1    20    21    3
     2    21     1    1
     3     1     2   ar
     4     2    16    1
     5    16    17    1
     6    16    18    1
     7    16    19    1
     8     2     3   ar
     9     3     4   ar
    10     4    22    1
    11    22    24    1
    12    24    25    1
    13    25    26   ar
    14    26    27   ar
    15    27    28   ar
    16    28    29   ar
    17     4     5   ar
    18     5     6   ar
    19     6     7   ar
    20     7     8   ar
    21     8     9   ar
    22     9    10   ar
    23    10    11    1
    24    10    12   ar
    25    12    13    1
    26    12    14   ar
    27    14    15   ar
    28     6     1   ar
    29    15     8   ar
    30    29    25   ar
    31    15     5   ar
    32    22    23    1
@<TRIPOS>MOLECULE
*****
 29 32 0 0 0
SMALL
GASTEIGER

@<TRIPOS>ATOM
      1 C         143.1114  140.2299  162.6831 C.ar    1  UNL1        0.1068
      2 C         142.6888  139.6141  161.3823 C.ar    1  UNL1        0.0867
      3 C         141.3822  138.8834  161.2880 C.ar    1  UNL1        0.0374
      4 C         140.4983  138.7685  162.4945 C.ar    1  UNL1        0.1143
      5 N         140.9209  139.3843  163.7953 N.ar    1  UNL1       -0.2782
      6 C         142.2275  140.1150  163.8896 C.ar    1  UNL1        0.1582
      7 N         142.3780  140.6159  165.2955 N.ar    1  UNL1       -0.2257
      8 C         141.1644  140.1948  166.0700 C.ar    1  UNL1        0.0999
      9 C         140.7630  140.4060  167.4997 C.ar    1  UNL1        0.0329
     10 C         139.4611  139.8561  168.0023 C.ar    1  UNL1        0.0698
     11 CL        139.0596  140.0674  169.4321 Cl      1  UNL1       -0.0813
     12 C         138.5606  139.0950  167.0751 C.ar    1  UNL1        0.0697
     13 CL        137.2586  138.5451  167.5777 Cl      1  UNL1       -0.0813
     14 C         138.9620  138.8837  165.6453 C.ar    1  UNL1        0.0314
     15 C         140.2639  139.4336  165.1428 C.ar    1  UNL1        0.0850
     16 C         143.5727  139.7290  160.1759 C.3     1  UNL1        0.4194
     17 F         144.4567  139.8439  158.9694 F       1  UNL1       -0.1658
     18 F         144.2931  138.4783  160.5846 F       1  UNL1       -0.1658
     19 F         142.8524  140.9796  159.7672 F       1  UNL1       -0.1658
     20 N         145.7247  141.6913  162.8720 N.1     1  UNL1       -0.1907
     21 C         144.4180  140.9606  162.7775 C.1     1  UNL1        0.1034
     22 N         139.1917  138.0378  162.4000 N.pl3   1  UNL1       -0.3151
     23 H         139.1478  137.0780  162.6149 H       1  UNL1        0.1485
     24 C         137.9519  138.7694  161.9783 C.3     1  UNL1        0.1219
     25 C         137.9010  140.2664  162.0581 C.ar    1  UNL1        0.0270
     26 C         137.4754  141.0719  163.2497 C.ar    1  UNL1        0.0044
     27 C         137.5781  142.5241  162.8883 C.ar    1  UNL1        0.0072
     28 C         138.0671  142.6161  161.4733 C.ar    1  UNL1        0.0352
     29 S         138.2667  141.2208  160.9602 S.2     1  UNL1       -0.0891
@<TRIPOS>BOND
     1    20    21    3
     2    21     1    1
     3     1     2   ar
     4     2    16    1
     5    16    17    1
     6    16    18    1
     7    16    19    1
     8     2     3   ar
     9     3     4   ar
    10     4    22    1
    11    22    24    1
    12    24    25    1
    13    25    26   ar
    14    26    27   ar
    15    27    28   ar
    16    28    29   ar
    17     4     5   ar
    18     5     6   ar
    19     6     7   ar
    20     7     8   ar
    21     8     9   ar
    22     9    10   ar
    23    10    11    1
    24    10    12   ar
    25    12    13    1
    26    12    14   ar
    27    14    15   ar
    28     6     1   ar
    29    15     8   ar
    30    29    25   ar
    31    15     5   ar
    32    22    23    1
@<TRIPOS>MOLECULE
*****
 29 32 0 0 0
SMALL
GASTEIGER

@<TRIPOS>ATOM
      1 C         142.1027  141.4918  168.0060 C.ar    1  UNL1        0.1068
      2 C         140.9379  140.6594  168.4533 C.ar    1  UNL1        0.0867
      3 C         140.0621  139.9877  167.4376 C.ar    1  UNL1        0.0374
      4 C         140.3511  140.1485  165.9745 C.ar    1  UNL1        0.1143
      5 N         141.5159  140.9810  165.5271 N.ar    1  UNL1       -0.2782
      6 C         142.3917  141.6526  166.5429 C.ar    1  UNL1        0.1582
      7 N         143.4607  142.4056  165.8077 N.ar    1  UNL1       -0.2257
      8 C         143.2455  142.1993  164.3376 C.ar    1  UNL1        0.0999
      9 C         143.9887  142.6994  163.1346 C.ar    1  UNL1        0.0329
     10 C         143.5300  142.3190  161.7580 C.ar    1  UNL1        0.0698
     11 CL        144.2732  142.8191  160.5549 Cl      1  UNL1       -0.0813
     12 C         142.3280  141.4385  161.5846 C.ar    1  UNL1        0.0697
     13 CL        141.8693  141.0582  160.2080 Cl      1  UNL1       -0.0813
     14 C         141.5848  140.9384  162.7877 C.ar    1  UNL1        0.0314
     15 C         142.0435  141.3188  164.1642 C.ar    1  UNL1        0.0850
     16 C         140.6489  140.4986  169.9164 C.3     1  UNL1        0.4194
     17 F         140.3599  140.3378  171.3795 F       1  UNL1       -0.1658
     18 F         139.7922  141.7294  169.8825 F       1  UNL1       -0.1658
     19 F         141.5056  139.2678  169.9504 F       1  UNL1       -0.1658
     20 N         143.8545  142.8353  170.0374 N.1     1  UNL1       -0.1907
     21 C         142.9785  142.1635  169.0217 C.1     1  UNL1        0.1034
     22 N         139.4752  139.4768  164.9587 N.pl3   1  UNL1       -0.3151
     23 H         139.7819  138.6558  164.5102 H       1  UNL1        0.1485
     24 C         138.1320  140.0560  164.6263 C.3     1  UNL1        0.1219
     25 C         138.0372  141.4017  163.9705 C.ar    1  UNL1        0.0270
     26 C         138.1214  142.7288  164.6646 C.ar    1  UNL1        0.0044
     27 C         137.9778  143.8039  163.6285 C.ar    1  UNL1        0.0072
     28 C         137.8048  143.1413  162.2940 C.ar    1  UNL1        0.0352
     29 S         137.8415  141.6567  162.5053 S.2     1  UNL1       -0.0891
@<TRIPOS>BOND
     1    20    21    3
     2    21     1    1
     3     1     2   ar
     4     2    16    1
     5    16    17    1
     6    16    18    1
     7    16    19    1
     8     2     3   ar
     9     3     4   ar
    10     4    22    1
    11    22    24    1
    12    24    25    1
    13    25    26   ar
    14    26    27   ar
    15    27    28   ar
    16    28    29   ar
    17     4     5   ar
    18     5     6   ar
    19     6     7   ar
    20     7     8   ar
    21     8     9   ar
    22     9    10   ar
    23    10    11    1
    24    10    12   ar
    25    12    13    1
    26    12    14   ar
    27    14    15   ar
    28     6     1   ar
    29    15     8   ar
    30    29    25   ar
    31    15     5   ar
    32    22    23    1
@<TRIPOS>MOLECULE
*****
 29 32 0 0 0
SMALL
GASTEIGER

@<TRIPOS>ATOM
      1 C         140.1677  142.0117  167.9944 C.ar    1  UNL1        0.1068
      2 C         140.0568  140.5899  168.4592 C.ar    1  UNL1        0.0867
      3 C         139.9473  139.4795  167.4567 C.ar    1  UNL1        0.0374
      4 C         139.9485  139.7910  165.9894 C.ar    1  UNL1        0.1143
      5 N         140.0593  141.2128  165.5245 N.ar    1  UNL1       -0.2782
      6 C         140.1689  142.3232  166.5271 C.ar    1  UNL1        0.1582
      7 N         140.2643  143.6180  165.7759 N.ar    1  UNL1       -0.2257
      8 C         140.2136  143.3079  164.3092 C.ar    1  UNL1        0.0999
      9 C         140.2665  144.1871  163.0950 C.ar    1  UNL1        0.0329
     10 C         140.1927  143.5797  161.7255 C.ar    1  UNL1        0.0698
     11 CL        140.2456  144.4589  160.5113 Cl      1  UNL1       -0.0813
     12 C         140.0661  142.0932  161.5702 C.ar    1  UNL1        0.0697
     13 CL        139.9923  141.4858  160.2006 Cl      1  UNL1       -0.0813
     14 C         140.0132  141.2140  162.7843 C.ar    1  UNL1        0.0314
     15 C         140.0870  141.8214  164.1538 C.ar    1  UNL1        0.0850
     16 C         140.0556  140.2784  169.9265 C.3     1  UNL1        0.4194
     17 F         140.0544  139.9670  171.3938 F       1  UNL1       -0.1658
     18 F         138.5654  140.4462  169.9609 F       1  UNL1       -0.1658
     19 F         141.5458  140.1106  169.8922 F       1  UNL1       -0.1658
     20 N         140.3867  144.2325  169.9994 N.1     1  UNL1       -0.1907
     21 C         140.2772  143.1221  168.9969 C.1     1  UNL1        0.1034
     22 N         139.8389  138.6805  164.9868 N.pl3   1  UNL1       -0.3151
     23 H         138.9995  138.5467  164.4902 H       1  UNL1        0.1485
     24 C         141.0084  137.7739  164.7411 C.3     1  UNL1        0.1219
     25 C         142.3478  138.3544  164.3962 C.ar    1  UNL1        0.0270
     26 C         143.4017  138.7821  165.3742 C.ar    1  UNL1        0.0044
     27 C         144.5737  139.3012  164.5952 C.ar    1  UNL1        0.0072
     28 C         144.2442  139.1944  163.1357 C.ar    1  UNL1        0.0352
     29 S         142.8685  138.6092  163.0127 S.2     1  UNL1       -0.0891
@<TRIPOS>BOND
     1    20    21    3
     2    21     1    1
     3     1     2   ar
     4     2    16    1
     5    16    17    1
     6    16    18    1
     7    16    19    1
     8     2     3   ar
     9     3     4   ar
    10     4    22    1
    11    22    24    1
    12    24    25    1
    13    25    26   ar
    14    26    27   ar
    15    27    28   ar
    16    28    29   ar
    17     4     5   ar
    18     5     6   ar
    19     6     7   ar
    20     7     8   ar
    21     8     9   ar
    22     9    10   ar
    23    10    11    1
    24    10    12   ar
    25    12    13    1
    26    12    14   ar
    27    14    15   ar
    28     6     1   ar
    29    15     8   ar
    30    29    25   ar
    31    15     5   ar
    32    22    23    1
@<TRIPOS>MOLECULE
*****
 29 32 0 0 0
SMALL
GASTEIGER

@<TRIPOS>ATOM
      1 C         143.4825  142.4180  163.4193 C.ar    1  UNL1        0.1068
      2 C         142.8797  143.1659  164.5713 C.ar    1  UNL1        0.0867
      3 C         141.9736  144.3336  164.3155 C.ar    1  UNL1        0.0374
      4 C         141.6704  144.7535  162.9077 C.ar    1  UNL1        0.1143
      5 N         142.2733  144.0056  161.7557 N.ar    1  UNL1       -0.2782
      6 C         143.1794  142.8378  162.0115 C.ar    1  UNL1        0.1582
      7 N         143.6239  142.2969  160.6849 N.ar    1  UNL1       -0.2257
      8 C         142.9926  143.1302  159.6093 C.ar    1  UNL1        0.0999
      9 C         143.0700  143.0639  158.1128 C.ar    1  UNL1        0.0329
     10 C         142.3127  144.0537  157.2781 C.ar    1  UNL1        0.0698
     11 CL        142.3900  143.9874  155.7815 Cl      1  UNL1       -0.0813
     12 C         141.4779  145.1097  157.9399 C.ar    1  UNL1        0.0697
     13 CL        140.7206  146.0995  157.1051 Cl      1  UNL1       -0.0813
     14 C         141.4005  145.1761  159.4364 C.ar    1  UNL1        0.0314
     15 C         142.1579  144.1863  160.2711 C.ar    1  UNL1        0.0850
     16 C         143.1828  142.7461  165.9791 C.3     1  UNL1        0.4194
     17 F         143.4860  142.3262  167.3868 F       1  UNL1       -0.1658
     18 F         144.4409  143.5626  165.9516 F       1  UNL1       -0.1658
     19 F         141.9248  141.9296  166.0065 F       1  UNL1       -0.1658
     20 N         145.2947  140.0826  163.9309 N.1     1  UNL1       -0.1907
     21 C         144.3886  141.2502  163.6750 C.1     1  UNL1        0.1034
     22 N         140.7643  145.9213  162.6520 N.pl3   1  UNL1       -0.3151
     23 H         141.1287  146.8359  162.6498 H       1  UNL1        0.1485
     24 C         139.3030  145.6955  162.3995 C.3     1  UNL1        0.1219
     25 C         138.6294  144.4691  162.9400 C.ar    1  UNL1        0.0270
     26 C         138.2494  144.2302  164.3712 C.ar    1  UNL1        0.0044
     27 C         137.6026  142.8797  164.4599 C.ar    1  UNL1        0.0072
     28 C         137.5829  142.2840  163.0835 C.ar    1  UNL1        0.0352
     29 S         138.2174  143.2663  162.1441 S.2     1  UNL1       -0.0891
@<TRIPOS>BOND
     1    20    21    3
     2    21     1    1
     3     1     2   ar
     4     2    16    1
     5    16    17    1
     6    16    18    1
     7    16    19    1
     8     2     3   ar
     9     3     4   ar
    10     4    22    1
    11    22    24    1
    12    24    25    1
    13    25    26   ar
    14    26    27   ar
    15    27    28   ar
    16    28    29   ar
    17     4     5   ar
    18     5     6   ar
    19     6     7   ar
    20     7     8   ar
    21     8     9   ar
    22     9    10   ar
    23    10    11    1
    24    10    12   ar
    25    12    13    1
    26    12    14   ar
    27    14    15   ar
    28     6     1   ar
    29    15     8   ar
    30    29    25   ar
    31    15     5   ar
    32    22    23    1
