@<TRIPOS>MOLECULE
*****
 29 32 0 0 0
SMALL
GASTEIGER

@<TRIPOS>ATOM
      1 N         139.9992  137.8973  164.3544 N.3     1  UNL1       -0.2700
      2 C         139.8999  137.7468  162.8653 C.3     1  UNL1        0.0897
      3 C         141.1374  137.8160  162.0203 C.3     1  UNL1        0.0897
      4 N         142.4741  138.0356  162.6645 N.3     1  UNL1       -0.2700
      5 C         142.5734  138.1860  164.1536 C.3     1  UNL1        0.0897
      6 C         141.3360  138.1169  164.9985 C.3     1  UNL1        0.0897
      7 C         138.7618  137.8282  165.1993 C.3     1  UNL1        0.0769
      8 C         138.1914  139.0798  165.7978 C.3     1  UNL1        0.0437
      9 O         138.5873  145.1399  162.0896 O.2     1  UNL1       -0.2449
     10 C         139.1830  144.3902  163.2442 C.2     1  UNL1        0.3413
     11 O         140.3001  144.8684  164.1237 O.3     1  UNL1       -0.4404
     12 C         140.5737  143.8044  165.1451 C.3     1  UNL1        0.2356
     13 C         139.6257  142.6688  164.8969 C.ar    1  UNL1        0.0272
     14 C         139.4341  141.3518  165.5888 C.ar    1  UNL1       -0.0047
     15 C         138.3830  140.3968  165.1059 C.ar    1  UNL1       -0.0210
     16 C         137.5235  140.7589  163.9310 C.ar    1  UNL1       -0.0040
     17 C         137.7151  142.0758  163.2391 C.ar    1  UNL1        0.0059
     18 C         138.7662  143.0308  163.7220 C.ar    1  UNL1        0.0751
     19 C         143.7115  138.1047  161.8195 C.3     1  UNL1        0.0769
     20 C         144.1572  139.4181  161.2481 C.3     1  UNL1        0.0437
     21 C         144.2115  140.6363  162.1217 C.ar    1  UNL1       -0.0204
     22 C         143.2762  141.7817  161.8703 C.ar    1  UNL1        0.0021
     23 C         143.3305  142.9999  162.7439 C.ar    1  UNL1        0.0749
     24 C         144.3201  143.0726  163.8688 C.ar    1  UNL1        0.2900
     25 C         145.2553  141.9271  164.1201 C.ar    1  UNL1        0.0749
     26 C         145.2011  140.7090  163.2466 C.ar    1  UNL1        0.0021
     27 N         144.3744  144.2908  164.7424 N.pl3   1  UNL1        0.0809
     28 O         145.1909  144.2757  166.0005 O.2     1  UNL1        0.0415
     29 O         143.6122  145.5241  164.3577 O.co2   1  UNL1       -0.5760
@<TRIPOS>UNITY_ATOM_ATTR
27 1
charge 1
29 1
charge -1
@<TRIPOS>BOND
     1     9    10    2
     2    10    11    1
     3    11    12    1
     4    12    13    1
     5    13    14   ar
     6    14    15   ar
     7    15     8    1
     8     8     7    1
     9     7     1    1
    10     1     2    1
    11     2     3    1
    12     3     4    1
    13     4    19    1
    14    19    20    1
    15    20    21    1
    16    21    22   ar
    17    22    23   ar
    18    23    24   ar
    19    24    27    1
    20    27    28    2
    21    27    29    1
    22    24    25   ar
    23    25    26   ar
    24     4     5    1
    25     5     6    1
    26    15    16   ar
    27    16    17   ar
    28    17    18   ar
    29    18    10    1
    30    18    13   ar
    31     6     1    1
    32    26    21   ar
@<TRIPOS>MOLECULE
*****
 29 32 0 0 0
SMALL
GASTEIGER

@<TRIPOS>ATOM
      1 N         137.9172  140.1472  162.2414 N.3     1  UNL1       -0.2700
      2 C         137.7474  140.3223  163.7214 C.3     1  UNL1        0.0897
      3 C         137.7399  141.6987  164.3178 C.3     1  UNL1        0.0897
      4 N         137.9021  142.8998  163.4342 N.3     1  UNL1       -0.2700
      5 C         138.0719  142.7247  161.9541 C.3     1  UNL1        0.0897
      6 C         138.0795  141.3484  161.3577 C.3     1  UNL1        0.0897
      7 C         137.9247  138.7709  161.6449 C.3     1  UNL1        0.0769
      8 C         139.2213  138.0384  161.4652 C.3     1  UNL1        0.0437
      9 O         143.8472  138.1806  166.8701 O.2     1  UNL1       -0.2449
     10 C         143.6572  138.5680  165.4335 C.2     1  UNL1        0.3413
     11 O         144.6659  139.2614  164.5665 O.3     1  UNL1       -0.4404
     12 C         144.0571  139.4520  163.2088 C.3     1  UNL1        0.2356
     13 C         142.6722  138.8764  163.2368 C.ar    1  UNL1        0.0272
     14 C         141.6044  138.7792  162.1880 C.ar    1  UNL1       -0.0047
     15 C         140.2893  138.1357  162.5141 C.ar    1  UNL1       -0.0210
     16 C         140.0421  137.5894  163.8890 C.ar    1  UNL1       -0.0040
     17 C         141.1100  137.6866  164.9379 C.ar    1  UNL1        0.0059
     18 C         142.4250  138.3301  164.6118 C.ar    1  UNL1        0.0751
     19 C         137.8946  144.2761  164.0306 C.3     1  UNL1        0.0769
     20 C         139.0921  144.7732  164.7848 C.3     1  UNL1        0.0437
     21 C         140.4665  144.3143  164.3967 C.ar    1  UNL1       -0.0204
     22 C         141.0710  143.1124  165.0600 C.ar    1  UNL1        0.0021
     23 C         142.4453  142.6534  164.6720 C.ar    1  UNL1        0.0749
     24 C         143.2151  143.3963  163.6206 C.ar    1  UNL1        0.2900
     25 C         142.6106  144.5982  162.9573 C.ar    1  UNL1        0.0749
     26 C         141.2363  145.0572  163.3453 C.ar    1  UNL1        0.0021
     27 N         144.5895  142.9374  163.2325 N.pl3   1  UNL1        0.0809
     28 O         144.9965  142.9255  161.7889 O.2     1  UNL1        0.0415
     29 O         145.5568  142.4903  164.2882 O.co2   1  UNL1       -0.5760
@<TRIPOS>UNITY_ATOM_ATTR
27 1
charge 1
29 1
charge -1
@<TRIPOS>BOND
     1     9    10    2
     2    10    11    1
     3    11    12    1
     4    12    13    1
     5    13    14   ar
     6    14    15   ar
     7    15     8    1
     8     8     7    1
     9     7     1    1
    10     1     2    1
    11     2     3    1
    12     3     4    1
    13     4    19    1
    14    19    20    1
    15    20    21    1
    16    21    22   ar
    17    22    23   ar
    18    23    24   ar
    19    24    27    1
    20    27    28    2
    21    27    29    1
    22    24    25   ar
    23    25    26   ar
    24     4     5    1
    25     5     6    1
    26    15    16   ar
    27    16    17   ar
    28    17    18   ar
    29    18    10    1
    30    18    13   ar
    31     6     1    1
    32    26    21   ar
@<TRIPOS>MOLECULE
*****
 29 32 0 0 0
SMALL
GASTEIGER

@<TRIPOS>ATOM
      1 N         141.9346  138.8288  164.4440 N.3     1  UNL1       -0.2700
      2 C         142.0768  138.9963  162.9602 C.3     1  UNL1        0.0897
      3 C         140.9111  138.7162  162.0586 C.3     1  UNL1        0.0897
      4 N         139.6032  138.2687  162.6409 N.3     1  UNL1       -0.2700
      5 C         139.4610  138.1012  164.1248 C.3     1  UNL1        0.0897
      6 C         140.6267  138.3812  165.0263 C.3     1  UNL1        0.0897
      7 C         143.1003  139.1089  165.3455 C.3     1  UNL1        0.0769
      8 C         142.9634  138.9242  166.8278 C.3     1  UNL1        0.0437
      9 O         140.0935  144.4708  170.2382 O.2     1  UNL1       -0.2449
     10 C         140.5327  143.0464  170.4060 C.2     1  UNL1        0.3413
     11 O         140.4480  142.2405  171.6684 O.3     1  UNL1       -0.4404
     12 C         140.9966  140.8739  171.3835 C.3     1  UNL1        0.2356
     13 C         141.4204  140.8350  169.9451 C.ar    1  UNL1        0.0272
     14 C         142.0303  139.7505  169.1074 C.ar    1  UNL1       -0.0047
     15 C         142.3534  140.0087  167.6656 C.ar    1  UNL1       -0.0210
     16 C         142.0667  141.3514  167.0615 C.ar    1  UNL1       -0.0040
     17 C         141.4568  142.4359  167.8992 C.ar    1  UNL1        0.0059
     18 C         141.1336  142.1777  169.3410 C.ar    1  UNL1        0.0751
     19 C         138.4376  137.9886  161.7394 C.3     1  UNL1        0.0769
     20 C         137.5268  139.1050  161.3223 C.3     1  UNL1        0.0437
     21 C         137.8291  140.5144  161.7375 C.ar    1  UNL1       -0.0204
     22 C         137.3919  141.0097  163.0842 C.ar    1  UNL1        0.0021
     23 C         137.6941  142.4190  163.4995 C.ar    1  UNL1        0.0749
     24 C         138.4336  143.3330  162.5681 C.ar    1  UNL1        0.2900
     25 C         138.8709  142.8378  161.2214 C.ar    1  UNL1        0.0749
     26 C         138.5686  141.4285  160.8061 C.ar    1  UNL1        0.0021
     27 N         138.7359  144.7424  162.9833 N.pl3   1  UNL1        0.0809
     28 O         138.9188  145.0738  164.4347 O.2     1  UNL1        0.0415
     29 O         138.8552  145.8203  161.9470 O.co2   1  UNL1       -0.5760
@<TRIPOS>UNITY_ATOM_ATTR
27 1
charge 1
29 1
charge -1
@<TRIPOS>BOND
     1     9    10    2
     2    10    11    1
     3    11    12    1
     4    12    13    1
     5    13    14   ar
     6    14    15   ar
     7    15     8    1
     8     8     7    1
     9     7     1    1
    10     1     2    1
    11     2     3    1
    12     3     4    1
    13     4    19    1
    14    19    20    1
    15    20    21    1
    16    21    22   ar
    17    22    23   ar
    18    23    24   ar
    19    24    27    1
    20    27    28    2
    21    27    29    1
    22    24    25   ar
    23    25    26   ar
    24     4     5    1
    25     5     6    1
    26    15    16   ar
    27    16    17   ar
    28    17    18   ar
    29    18    10    1
    30    18    13   ar
    31     6     1    1
    32    26    21   ar
@<TRIPOS>MOLECULE
*****
 29 32 0 0 0
SMALL
GASTEIGER

@<TRIPOS>ATOM
      1 N         141.8608  138.3873  164.4520 N.3     1  UNL1       -0.2700
      2 C         142.5326  138.5623  163.1223 C.3     1  UNL1        0.0897
      3 C         143.5856  139.6162  162.9470 C.3     1  UNL1        0.0897
      4 N         143.9668  140.4950  164.1013 N.3     1  UNL1       -0.2700
      5 C         143.2949  140.3200  165.4309 C.3     1  UNL1        0.0897
      6 C         142.2420  139.2662  165.6063 C.3     1  UNL1        0.0897
      7 C         140.8079  137.3335  164.6274 C.3     1  UNL1        0.0769
      8 C         139.3569  137.7134  164.6130 C.3     1  UNL1        0.0437
      9 O         137.3929  144.4219  163.2822 O.2     1  UNL1       -0.2449
     10 C         137.7393  143.1145  162.6337 C.2     1  UNL1        0.3413
     11 O         137.7587  142.8394  161.1593 O.3     1  UNL1       -0.4404
     12 C         138.1586  141.4074  160.9602 C.3     1  UNL1        0.2356
     13 C         138.3864  140.7975  162.3116 C.ar    1  UNL1        0.0272
     14 C         138.7962  139.4179  162.7339 C.ar    1  UNL1       -0.0047
     15 C         138.9470  139.0932  164.1906 C.ar    1  UNL1       -0.0210
     16 C         138.6878  140.1482  165.2249 C.ar    1  UNL1       -0.0040
     17 C         138.2780  141.5279  164.8025 C.ar    1  UNL1        0.0059
     18 C         138.1272  141.8526  163.3459 C.ar    1  UNL1        0.0751
     19 C         145.0197  141.5488  163.9259 C.3     1  UNL1        0.0769
     20 C         144.6676  142.9967  164.0973 C.3     1  UNL1        0.0437
     21 C         143.5373  143.5919  163.3108 C.ar    1  UNL1       -0.0204
     22 C         143.3698  143.2476  161.8605 C.ar    1  UNL1        0.0021
     23 C         142.2397  143.8427  161.0741 C.ar    1  UNL1        0.0749
     24 C         141.2771  144.7822  161.7379 C.ar    1  UNL1        0.2900
     25 C         141.4446  145.1266  163.1882 C.ar    1  UNL1        0.0749
     26 C         142.5748  144.5314  163.9746 C.ar    1  UNL1        0.0021
     27 N         140.1469  145.3774  160.9514 N.pl3   1  UNL1        0.0809
     28 O         139.3365  146.4975  161.5332 O.2     1  UNL1        0.0415
     29 O         139.8271  144.8524  159.5832 O.co2   1  UNL1       -0.5760
@<TRIPOS>UNITY_ATOM_ATTR
27 1
charge 1
29 1
charge -1
@<TRIPOS>BOND
     1     9    10    2
     2    10    11    1
     3    11    12    1
     4    12    13    1
     5    13    14   ar
     6    14    15   ar
     7    15     8    1
     8     8     7    1
     9     7     1    1
    10     1     2    1
    11     2     3    1
    12     3     4    1
    13     4    19    1
    14    19    20    1
    15    20    21    1
    16    21    22   ar
    17    22    23   ar
    18    23    24   ar
    19    24    27    1
    20    27    28    2
    21    27    29    1
    22    24    25   ar
    23    25    26   ar
    24     4     5    1
    25     5     6    1
    26    15    16   ar
    27    16    17   ar
    28    17    18   ar
    29    18    10    1
    30    18    13   ar
    31     6     1    1
    32    26    21   ar
@<TRIPOS>MOLECULE
*****
 29 32 0 0 0
SMALL
GASTEIGER

@<TRIPOS>ATOM
      1 N         139.2925  138.2868  162.5077 N.3     1  UNL1       -0.2700
      2 C         140.7053  138.6135  162.1241 C.3     1  UNL1        0.0897
      3 C         141.7708  138.6859  163.1775 C.3     1  UNL1        0.0897
      4 N         141.4234  138.4316  164.6144 N.3     1  UNL1       -0.2700
      5 C         140.0106  138.1049  164.9979 C.3     1  UNL1        0.0897
      6 C         138.9451  138.0325  163.9446 C.3     1  UNL1        0.0897
      7 C         138.2270  138.2144  161.4544 C.3     1  UNL1        0.0769
      8 C         137.3329  139.3936  161.2097 C.3     1  UNL1        0.0437
      9 O         139.7906  145.9851  162.2795 O.2     1  UNL1       -0.2449
     10 C         139.0556  144.8506  162.9297 C.2     1  UNL1        0.3413
     11 O         138.5236  144.8333  164.3321 O.3     1  UNL1       -0.4404
     12 C         137.8628  143.5062  164.5607 C.3     1  UNL1        0.2356
     13 C         137.9863  142.7034  163.2997 C.ar    1  UNL1        0.0272
     14 C         137.5228  141.3232  162.9390 C.ar    1  UNL1       -0.0047
     15 C         137.7965  140.7739  161.5704 C.ar    1  UNL1       -0.0210
     16 C         138.5337  141.6048  160.5623 C.ar    1  UNL1       -0.0040
     17 C         138.9972  142.9850  160.9229 C.ar    1  UNL1        0.0059
     18 C         138.7235  143.5343  162.2916 C.ar    1  UNL1        0.0751
     19 C         142.4889  138.5040  165.6677 C.3     1  UNL1        0.0769
     20 C         143.0155  139.8366  166.1115 C.3     1  UNL1        0.0437
     21 C         142.3747  140.5498  167.2652 C.ar    1  UNL1       -0.0204
     22 C         141.2623  139.8937  168.0281 C.ar    1  UNL1        0.0021
     23 C         140.6215  140.6068  169.1817 C.ar    1  UNL1        0.0749
     24 C         141.0933  141.9760  169.5724 C.ar    1  UNL1        0.2900
     25 C         142.2057  142.6321  168.8095 C.ar    1  UNL1        0.0749
     26 C         142.8464  141.9190  167.6559 C.ar    1  UNL1        0.0021
     27 N         140.4525  142.6892  170.7260 N.pl3   1  UNL1        0.0809
     28 O         140.4626  142.0676  172.0911 O.2     1  UNL1        0.0415
     29 O         139.8017  144.0241  170.5146 O.co2   1  UNL1       -0.5760
@<TRIPOS>UNITY_ATOM_ATTR
27 1
charge 1
29 1
charge -1
@<TRIPOS>BOND
     1     9    10    2
     2    10    11    1
     3    11    12    1
     4    12    13    1
     5    13    14   ar
     6    14    15   ar
     7    15     8    1
     8     8     7    1
     9     7     1    1
    10     1     2    1
    11     2     3    1
    12     3     4    1
    13     4    19    1
    14    19    20    1
    15    20    21    1
    16    21    22   ar
    17    22    23   ar
    18    23    24   ar
    19    24    27    1
    20    27    28    2
    21    27    29    1
    22    24    25   ar
    23    25    26   ar
    24     4     5    1
    25     5     6    1
    26    15    16   ar
    27    16    17   ar
    28    17    18   ar
    29    18    10    1
    30    18    13   ar
    31     6     1    1
    32    26    21   ar
@<TRIPOS>MOLECULE
*****
 29 32 0 0 0
SMALL
GASTEIGER

@<TRIPOS>ATOM
      1 N         138.8199  141.9563  162.0003 N.3     1  UNL1       -0.2700
      2 C         139.3891  140.5706  162.0769 C.3     1  UNL1        0.0897
      3 C         139.1502  139.7280  163.2948 C.3     1  UNL1        0.0897
      4 N         138.3422  140.2710  164.4359 N.3     1  UNL1       -0.2700
      5 C         137.7731  141.6568  164.3593 C.3     1  UNL1        0.0897
      6 C         138.0119  142.4994  163.1416 C.3     1  UNL1        0.0897
      7 C         139.0587  142.7990  160.7826 C.3     1  UNL1        0.0769
      8 C         140.1921  143.7814  160.7608 C.3     1  UNL1        0.0437
      9 O         144.9220  143.9383  166.0745 O.2     1  UNL1       -0.2449
     10 C         144.6067  143.2924  164.7579 C.2     1  UNL1        0.3413
     11 O         145.4344  142.2497  164.0667 O.3     1  UNL1       -0.4404
     12 C         144.7476  141.8887  162.7830 C.3     1  UNL1        0.2356
     13 C         143.4955  142.7084  162.6807 C.ar    1  UNL1        0.0272
     14 C         142.4234  142.7768  161.6339 C.ar    1  UNL1       -0.0047
     15 C         141.2642  143.7128  161.8077 C.ar    1  UNL1       -0.0210
     16 C         141.1772  144.5804  163.0283 C.ar    1  UNL1       -0.0040
     17 C         142.2493  144.5119  164.0751 C.ar    1  UNL1        0.0059
     18 C         143.4084  143.5759  163.9013 C.ar    1  UNL1        0.0751
     19 C         138.1034  139.4284  165.6536 C.3     1  UNL1        0.0769
     20 C         139.1989  139.2378  166.6604 C.3     1  UNL1        0.0437
     21 C         139.6353  140.3866  167.5205 C.ar    1  UNL1       -0.0204
     22 C         139.3629  140.3652  168.9953 C.ar    1  UNL1        0.0021
     23 C         139.7993  141.5140  169.8554 C.ar    1  UNL1        0.0749
     24 C         140.5082  142.6842  169.2406 C.ar    1  UNL1        0.2900
     25 C         140.7807  142.7056  167.7657 C.ar    1  UNL1        0.0749
     26 C         140.3443  141.5568  166.9057 C.ar    1  UNL1        0.0021
     27 N         140.9446  143.8331  170.1007 N.pl3   1  UNL1        0.0809
     28 O         142.3189  143.8403  170.7017 O.2     1  UNL1        0.0415
     29 O         140.0067  144.9747  170.3597 O.co2   1  UNL1       -0.5760
@<TRIPOS>UNITY_ATOM_ATTR
27 1
charge 1
29 1
charge -1
@<TRIPOS>BOND
     1     9    10    2
     2    10    11    1
     3    11    12    1
     4    12    13    1
     5    13    14   ar
     6    14    15   ar
     7    15     8    1
     8     8     7    1
     9     7     1    1
    10     1     2    1
    11     2     3    1
    12     3     4    1
    13     4    19    1
    14    19    20    1
    15    20    21    1
    16    21    22   ar
    17    22    23   ar
    18    23    24   ar
    19    24    27    1
    20    27    28    2
    21    27    29    1
    22    24    25   ar
    23    25    26   ar
    24     4     5    1
    25     5     6    1
    26    15    16   ar
    27    16    17   ar
    28    17    18   ar
    29    18    10    1
    30    18    13   ar
    31     6     1    1
    32    26    21   ar
@<TRIPOS>MOLECULE
*****
 29 32 0 0 0
SMALL
GASTEIGER

@<TRIPOS>ATOM
      1 N         144.0680  139.8591  163.8957 N.3     1  UNL1       -0.2700
      2 C         143.4420  139.0985  162.7645 C.3     1  UNL1        0.0897
      3 C         142.2756  138.1920  163.0251 C.3     1  UNL1        0.0897
      4 N         141.7352  138.0462  164.4167 N.3     1  UNL1       -0.2700
      5 C         142.3612  138.8068  165.5479 C.3     1  UNL1        0.0897
      6 C         143.5276  139.7133  165.2874 C.3     1  UNL1        0.0897
      7 C         145.2344  140.7655  163.6353 C.3     1  UNL1        0.0769
      8 C         145.1378  142.2257  163.9650 C.3     1  UNL1        0.0437
      9 O         139.7308  146.3869  161.9449 O.2     1  UNL1       -0.2449
     10 C         140.7227  145.3739  161.4550 C.2     1  UNL1        0.3413
     11 O         140.8401  144.8630  160.0495 O.3     1  UNL1       -0.4404
     12 C         141.9613  143.8673  160.0105 C.3     1  UNL1        0.2356
     13 C         142.5368  143.7628  161.3917 C.ar    1  UNL1        0.0272
     14 C         143.6589  142.9401  161.9518 C.ar    1  UNL1       -0.0047
     15 C         144.0156  143.0484  163.4048 C.ar    1  UNL1       -0.0210
     16 C         143.2501  143.9796  164.2975 C.ar    1  UNL1       -0.0040
     17 C         142.1280  144.8023  163.7374 C.ar    1  UNL1        0.0059
     18 C         141.7713  144.6939  162.2845 C.ar    1  UNL1        0.0751
     19 C         140.5688  137.1398  164.6772 C.3     1  UNL1        0.0769
     20 C         139.2012  137.7189  164.8875 C.3     1  UNL1        0.0437
     21 C         138.8498  139.0489  164.2893 C.ar    1  UNL1       -0.0204
     22 C         138.9032  140.2882  165.1328 C.ar    1  UNL1        0.0021
     23 C         138.5518  141.6181  164.5347 C.ar    1  UNL1        0.0749
     24 C         138.1471  141.7088  163.0932 C.ar    1  UNL1        0.2900
     25 C         138.0938  140.4696  162.2498 C.ar    1  UNL1        0.0749
     26 C         138.4451  139.1396  162.8479 C.ar    1  UNL1        0.0021
     27 N         137.7958  143.0389  162.4951 N.pl3   1  UNL1        0.0809
     28 O         137.5412  144.2183  163.3863 O.2     1  UNL1        0.0415
     29 O         137.6989  143.1894  161.0058 O.co2   1  UNL1       -0.5760
@<TRIPOS>UNITY_ATOM_ATTR
27 1
charge 1
29 1
charge -1
@<TRIPOS>BOND
     1     9    10    2
     2    10    11    1
     3    11    12    1
     4    12    13    1
     5    13    14   ar
     6    14    15   ar
     7    15     8    1
     8     8     7    1
     9     7     1    1
    10     1     2    1
    11     2     3    1
    12     3     4    1
    13     4    19    1
    14    19    20    1
    15    20    21    1
    16    21    22   ar
    17    22    23   ar
    18    23    24   ar
    19    24    27    1
    20    27    28    2
    21    27    29    1
    22    24    25   ar
    23    25    26   ar
    24     4     5    1
    25     5     6    1
    26    15    16   ar
    27    16    17   ar
    28    17    18   ar
    29    18    10    1
    30    18    13   ar
    31     6     1    1
    32    26    21   ar
@<TRIPOS>MOLECULE
*****
 29 32 0 0 0
SMALL
GASTEIGER

@<TRIPOS>ATOM
      1 N         138.7104  144.1480  163.0568 N.3     1  UNL1       -0.2700
      2 C         138.3525  142.9449  162.2354 C.3     1  UNL1        0.0897
      3 C         138.1716  141.6113  162.8979 C.3     1  UNL1        0.0897
      4 N         138.3486  141.4808  164.3817 N.3     1  UNL1       -0.2700
      5 C         138.7065  142.6838  165.2030 C.3     1  UNL1        0.0897
      6 C         138.8874  144.0174  164.5406 C.3     1  UNL1        0.0897
      7 C         138.8913  145.4815  162.3944 C.3     1  UNL1        0.0769
      8 C         140.2656  145.9545  162.0236 C.3     1  UNL1        0.0437
      9 O         145.8354  141.5584  162.5562 O.2     1  UNL1       -0.2449
     10 C         145.0141  142.5627  163.3091 C.2     1  UNL1        0.3413
     11 O         145.2308  142.9915  164.7300 O.3     1  UNL1       -0.4404
     12 C         144.1825  144.0084  165.0722 C.3     1  UNL1        0.2356
     13 C         143.3180  144.2081  163.8628 C.ar    1  UNL1        0.0272
     14 C         142.1293  145.0880  163.6130 C.ar    1  UNL1       -0.0047
     15 C         141.4545  145.0745  162.2734 C.ar    1  UNL1       -0.0210
     16 C         141.9684  144.1810  161.1837 C.ar    1  UNL1       -0.0040
     17 C         143.1572  143.3011  161.4335 C.ar    1  UNL1        0.0059
     18 C         143.8320  143.3146  162.7731 C.ar    1  UNL1        0.0751
     19 C         138.1676  140.1472  165.0441 C.3     1  UNL1        0.0769
     20 C         139.3658  139.3184  165.4010 C.3     1  UNL1        0.0437
     21 C         140.0861  139.5593  166.6946 C.ar    1  UNL1       -0.0204
     22 C         139.3092  139.8784  167.9375 C.ar    1  UNL1        0.0021
     23 C         140.0294  140.1193  169.2310 C.ar    1  UNL1        0.0749
     24 C         141.5264  140.0412  169.2816 C.ar    1  UNL1        0.2900
     25 C         142.3033  139.7222  168.0388 C.ar    1  UNL1        0.0749
     26 C         141.5832  139.4813  166.7453 C.ar    1  UNL1        0.0021
     27 N         142.2467  140.2822  170.5752 N.pl3   1  UNL1        0.0809
     28 O         141.6694  141.2225  171.5912 O.2     1  UNL1        0.0415
     29 O         143.5443  139.5827  170.8527 O.co2   1  UNL1       -0.5760
@<TRIPOS>UNITY_ATOM_ATTR
27 1
charge 1
29 1
charge -1
@<TRIPOS>BOND
     1     9    10    2
     2    10    11    1
     3    11    12    1
     4    12    13    1
     5    13    14   ar
     6    14    15   ar
     7    15     8    1
     8     8     7    1
     9     7     1    1
    10     1     2    1
    11     2     3    1
    12     3     4    1
    13     4    19    1
    14    19    20    1
    15    20    21    1
    16    21    22   ar
    17    22    23   ar
    18    23    24   ar
    19    24    27    1
    20    27    28    2
    21    27    29    1
    22    24    25   ar
    23    25    26   ar
    24     4     5    1
    25     5     6    1
    26    15    16   ar
    27    16    17   ar
    28    17    18   ar
    29    18    10    1
    30    18    13   ar
    31     6     1    1
    32    26    21   ar
@<TRIPOS>MOLECULE
*****
 29 32 0 0 0
SMALL
GASTEIGER

@<TRIPOS>ATOM
      1 N         139.4849  137.9512  164.3417 N.3     1  UNL1       -0.2700
      2 C         140.9463  137.7350  164.6017 C.3     1  UNL1        0.0897
      3 C         141.9039  137.6228  163.4526 C.3     1  UNL1        0.0897
      4 N         141.4002  137.7269  162.0436 N.3     1  UNL1       -0.2700
      5 C         139.9388  137.9431  161.7836 C.3     1  UNL1        0.0897
      6 C         138.9812  138.0553  162.9326 C.3     1  UNL1        0.0897
      7 C         138.5273  138.0634  165.4907 C.3     1  UNL1        0.0769
      8 C         138.3187  139.3860  166.1669 C.3     1  UNL1        0.0437
      9 O         140.9901  145.3526  163.3570 O.2     1  UNL1       -0.2449
     10 C         139.8156  144.4204  163.3176 C.2     1  UNL1        0.3413
     11 O         138.6047  144.5644  162.4441 O.3     1  UNL1       -0.4404
     12 C         137.6865  143.4136  162.7315 C.3     1  UNL1        0.2356
     13 C         138.3299  142.5585  163.7826 C.ar    1  UNL1        0.0272
     14 C         137.8875  141.2936  164.4566 C.ar    1  UNL1       -0.0047
     15 C         138.7611  140.6509  165.4928 C.ar    1  UNL1       -0.0210
     16 C         140.0769  141.2732  165.8551 C.ar    1  UNL1       -0.0040
     17 C         140.5193  142.5381  165.1811 C.ar    1  UNL1        0.0059
     18 C         139.6457  143.1807  164.1448 C.ar    1  UNL1        0.0751
     19 C         142.3578  137.6147  160.8946 C.3     1  UNL1        0.0769
     20 C         142.8380  138.8516  160.1949 C.3     1  UNL1        0.0437
     21 C         143.1657  140.0823  160.9875 C.ar    1  UNL1       -0.0204
     22 C         144.4099  140.1262  161.8242 C.ar    1  UNL1        0.0021
     23 C         144.7377  141.3568  162.6168 C.ar    1  UNL1        0.0749
     24 C         143.8212  142.5434  162.5726 C.ar    1  UNL1        0.2900
     25 C         142.5771  142.4995  161.7359 C.ar    1  UNL1        0.0749
     26 C         142.2493  141.2689  160.9434 C.ar    1  UNL1        0.0021
     27 N         144.1490  143.7741  163.3653 N.pl3   1  UNL1        0.0809
     28 O         144.4116  143.6695  164.8383 O.2     1  UNL1        0.0415
     29 O         144.2141  145.1092  162.6847 O.co2   1  UNL1       -0.5760
@<TRIPOS>UNITY_ATOM_ATTR
27 1
charge 1
29 1
charge -1
@<TRIPOS>BOND
     1     9    10    2
     2    10    11    1
     3    11    12    1
     4    12    13    1
     5    13    14   ar
     6    14    15   ar
     7    15     8    1
     8     8     7    1
     9     7     1    1
    10     1     2    1
    11     2     3    1
    12     3     4    1
    13     4    19    1
    14    19    20    1
    15    20    21    1
    16    21    22   ar
    17    22    23   ar
    18    23    24   ar
    19    24    27    1
    20    27    28    2
    21    27    29    1
    22    24    25   ar
    23    25    26   ar
    24     4     5    1
    25     5     6    1
    26    15    16   ar
    27    16    17   ar
    28    17    18   ar
    29    18    10    1
    30    18    13   ar
    31     6     1    1
    32    26    21   ar
