@<TRIPOS>MOLECULE
*****
 26 30 0 0 0
SMALL
GASTEIGER

@<TRIPOS>ATOM
      1 O         143.7228  142.7074  167.5512 O.2     1  UNL1       -0.2258
      2 C         142.7383  142.8584  166.4296 C.2     1  UNL1        0.4086
      3 O         143.0319  143.4135  165.0673 O.3     1  UNL1       -0.4396
      4 C         141.7623  143.3791  164.2692 C.3     1  UNL1        0.1624
      5 C         142.9376  143.9364  163.5222 C.3     1  UNL1        0.0825
      6 C         142.7749  144.3974  162.1042 C.3     1  UNL1        0.1713
      7 N         141.4368  144.3009  161.4330 N.pl3   1  UNL1       -0.1932
      8 C         140.2616  143.7435  162.1800 C.3     1  UNL1        0.1713
      9 C         140.4243  143.2826  163.5981 C.3     1  UNL1        0.0825
     10 C         140.6840  142.8027  165.1383 C.3     1  UNL1        0.1416
     11 N         141.2872  142.4809  166.4734 N.am    1  UNL1       -0.2215
     12 C         141.2741  144.7619  160.0149 C.cat   1  UNL1        0.4230
     13 N         140.1334  145.5739  159.4771 N.2     1  UNL1       -0.0678
     14 C         140.3779  145.8056  158.0154 C.2     1  UNL1        0.1887
     15 C         139.5911  146.5393  156.9701 C.2     1  UNL1        0.0395
     16 C         140.0962  146.6040  155.5591 C.2     1  UNL1       -0.0010
     17 C         141.3880  145.9351  155.1936 C.2     1  UNL1       -0.0181
     18 C         142.1748  145.2015  156.2389 C.3     1  UNL1        0.0932
     19 C         141.6698  145.1368  157.6498 C.2     1  UNL1        0.1744
     20 N         142.2237  144.4917  158.8855 N.2     1  UNL1       -0.0716
     21 C         140.5659  141.8862  167.6464 C.ar    1  UNL1        0.0571
     22 C         140.4982  142.6357  168.9439 C.ar    1  UNL1        0.0150
     23 C         139.7770  142.0409  170.1169 C.ar    1  UNL1        0.0013
     24 C         139.1233  140.6965  169.9924 C.ar    1  UNL1        0.0001
     25 C         139.1910  139.9469  168.6948 C.ar    1  UNL1        0.0013
     26 C         139.9123  140.5418  167.5219 C.ar    1  UNL1        0.0150
@<TRIPOS>BOND
     1     1     2    2
     2     2     3    1
     3     3     4    1
     4     4     5    1
     5     5     6    1
     6     6     7    1
     7     7    12    1
     8    12    13    2
     9    13    14    1
    10    14    15    2
    11    15    16    1
    12    16    17    2
    13    17    18    1
    14    18    19    1
    15    19    20    2
    16     7     8    1
    17     8     9    1
    18     4    10    1
    19    10    11    1
    20    11    21    1
    21    21    22   ar
    22    22    23   ar
    23    23    24   ar
    24    24    25   ar
    25    25    26   ar
    26    11     2   am
    27    26    21   ar
    28     9     4    1
    29    20    12    1
    30    19    14    1
@<TRIPOS>MOLECULE
*****
 26 30 0 0 0
SMALL
GASTEIGER

@<TRIPOS>ATOM
      1 O         137.4688  138.5942  166.6600 O.2     1  UNL1       -0.2258
      2 C         138.2966  139.5557  165.8598 C.2     1  UNL1        0.4086
      3 O         138.0147  140.0066  164.4572 O.3     1  UNL1       -0.4396
      4 C         139.0956  140.9647  164.0523 C.3     1  UNL1        0.1624
      5 C         138.0644  140.7237  162.9899 C.3     1  UNL1        0.0825
      6 C         138.1759  141.4186  161.6653 C.3     1  UNL1        0.1713
      7 N         139.3185  142.3544  161.4030 N.pl3   1  UNL1       -0.1932
      8 C         140.3496  142.5953  162.4653 C.3     1  UNL1        0.1713
      9 C         140.2382  141.9005  163.7900 C.3     1  UNL1        0.0825
     10 C         140.0454  141.1059  165.2047 C.3     1  UNL1        0.1416
     11 N         139.5516  140.2351  166.3218 N.am    1  UNL1       -0.2215
     12 C         139.4299  143.0492  160.0782 C.cat   1  UNL1        0.4230
     13 N         138.8392  142.5774  158.7827 N.2     1  UNL1       -0.0678
     14 C         139.1958  143.5744  157.7203 C.2     1  UNL1        0.1887
     15 C         138.8868  143.6322  156.2536 C.2     1  UNL1        0.0395
     16 C         139.3888  144.7780  155.4259 C.2     1  UNL1       -0.0010
     17 C         140.1999  145.8660  156.0649 C.2     1  UNL1       -0.0181
     18 C         140.5089  145.8083  157.5315 C.3     1  UNL1        0.0932
     19 C         140.0069  144.6626  158.3593 C.2     1  UNL1        0.1744
     20 N         140.1515  144.3379  159.8165 N.2     1  UNL1       -0.0716
     21 C         140.1992  140.0723  167.6649 C.ar    1  UNL1        0.0571
     22 C         139.3964  140.2809  168.9147 C.ar    1  UNL1        0.0150
     23 C         140.0440  140.1181  170.2579 C.ar    1  UNL1        0.0013
     24 C         141.4943  139.7467  170.3513 C.ar    1  UNL1        0.0001
     25 C         142.2971  139.5380  169.1014 C.ar    1  UNL1        0.0013
     26 C         141.6494  139.7009  167.7583 C.ar    1  UNL1        0.0150
@<TRIPOS>BOND
     1     1     2    2
     2     2     3    1
     3     3     4    1
     4     4     5    1
     5     5     6    1
     6     6     7    1
     7     7    12    1
     8    12    13    2
     9    13    14    1
    10    14    15    2
    11    15    16    1
    12    16    17    2
    13    17    18    1
    14    18    19    1
    15    19    20    2
    16     7     8    1
    17     8     9    1
    18     4    10    1
    19    10    11    1
    20    11    21    1
    21    21    22   ar
    22    22    23   ar
    23    23    24   ar
    24    24    25   ar
    25    25    26   ar
    26    11     2   am
    27    26    21   ar
    28     9     4    1
    29    20    12    1
    30    19    14    1
@<TRIPOS>MOLECULE
*****
 26 30 0 0 0
SMALL
GASTEIGER

@<TRIPOS>ATOM
      1 O         138.7689  144.9670  165.8701 O.2     1  UNL1       -0.2258
      2 C         139.1376  144.4058  164.5288 C.2     1  UNL1        0.4086
      3 O         139.3580  145.1958  163.2728 O.3     1  UNL1       -0.4396
      4 C         139.7074  144.2344  162.1757 C.3     1  UNL1        0.1624
      5 C         139.6732  145.6696  161.7412 C.3     1  UNL1        0.0825
      6 C         139.9741  146.0292  160.3164 C.3     1  UNL1        0.1713
      7 N         140.3092  144.9535  159.3262 N.pl3   1  UNL1       -0.1932
      8 C         140.3434  143.5183  159.7607 C.3     1  UNL1        0.1713
      9 C         140.0425  143.1587  161.1855 C.3     1  UNL1        0.0825
     10 C         139.7030  142.8501  162.7537 C.3     1  UNL1        0.1416
     11 N         139.3509  142.9561  164.2080 N.am    1  UNL1       -0.2215
     12 C         140.6102  145.3132  157.9013 C.cat   1  UNL1        0.4230
     13 N         139.9321  146.3849  157.1004 N.2     1  UNL1       -0.0678
     14 C         140.5449  146.3983  155.7313 C.2     1  UNL1        0.1887
     15 C         140.2771  147.2414  154.5200 C.2     1  UNL1        0.0395
     16 C         141.0662  147.0211  153.2634 C.2     1  UNL1       -0.0010
     17 C         142.1231  145.9577  153.2183 C.2     1  UNL1       -0.0181
     18 C         142.3909  145.1145  154.4296 C.3     1  UNL1        0.0932
     19 C         141.6018  145.3348  155.6861 C.2     1  UNL1        0.1744
     20 N         141.6421  144.6642  157.0273 N.2     1  UNL1       -0.0716
     21 C         139.2327  141.8131  165.1720 C.ar    1  UNL1        0.0571
     22 C         140.0504  141.8050  166.4295 C.ar    1  UNL1        0.0150
     23 C         139.9323  140.6619  167.3936 C.ar    1  UNL1        0.0013
     24 C         138.9964  139.5270  167.1002 C.ar    1  UNL1        0.0001
     25 C         138.1786  139.5351  165.8427 C.ar    1  UNL1        0.0013
     26 C         138.2968  140.6782  164.8787 C.ar    1  UNL1        0.0150
@<TRIPOS>BOND
     1     1     2    2
     2     2     3    1
     3     3     4    1
     4     4     5    1
     5     5     6    1
     6     6     7    1
     7     7    12    1
     8    12    13    2
     9    13    14    1
    10    14    15    2
    11    15    16    1
    12    16    17    2
    13    17    18    1
    14    18    19    1
    15    19    20    2
    16     7     8    1
    17     8     9    1
    18     4    10    1
    19    10    11    1
    20    11    21    1
    21    21    22   ar
    22    22    23   ar
    23    23    24   ar
    24    24    25   ar
    25    25    26   ar
    26    11     2   am
    27    26    21   ar
    28     9     4    1
    29    20    12    1
    30    19    14    1
@<TRIPOS>MOLECULE
*****
 26 30 0 0 0
SMALL
GASTEIGER

@<TRIPOS>ATOM
      1 O         137.6844  138.7590  168.0704 O.2     1  UNL1       -0.2258
      2 C         138.6045  139.1340  166.9468 C.2     1  UNL1        0.4086
      3 O         138.5295  138.6240  165.5380 O.3     1  UNL1       -0.4396
      4 C         139.6398  139.2598  164.7551 C.3     1  UNL1        0.1624
      5 C         138.7866  138.3226  163.9529 C.3     1  UNL1        0.0825
      6 C         139.0835  138.0953  162.5003 C.3     1  UNL1        0.1713
      7 N         140.2338  138.8052  161.8499 N.pl3   1  UNL1       -0.1932
      8 C         141.0870  139.7424  162.6521 C.3     1  UNL1        0.1713
      9 C         140.7900  139.9697  164.1047 C.3     1  UNL1        0.0825
     10 C         140.4011  140.1628  165.6800 C.3     1  UNL1        0.1416
     11 N         139.7612  140.0851  167.0344 N.am    1  UNL1       -0.2215
     12 C         140.5307  138.5779  160.3972 C.cat   1  UNL1        0.4230
     13 N         139.5176  138.4734  159.2960 N.2     1  UNL1       -0.0678
     14 C         140.2536  138.2461  158.0090 C.2     1  UNL1        0.1887
     15 C         139.7768  138.0672  156.5981 C.2     1  UNL1        0.0395
     16 C         140.7681  137.8524  155.4929 C.2     1  UNL1       -0.0010
     17 C         142.2361  137.8164  155.7987 C.2     1  UNL1       -0.0181
     18 C         142.7129  137.9953  157.2096 C.3     1  UNL1        0.0932
     19 C         141.7218  138.2101  158.3147 C.2     1  UNL1        0.1744
     20 N         141.8930  138.4152  159.7907 N.2     1  UNL1       -0.0716
     21 C         140.2009  140.8279  168.2611 C.ar    1  UNL1        0.0571
     22 C         140.5629  140.0729  169.5056 C.ar    1  UNL1        0.0150
     23 C         141.0026  140.8158  170.7323 C.ar    1  UNL1        0.0013
     24 C         141.0802  142.3136  170.7145 C.ar    1  UNL1        0.0001
     25 C         140.7181  143.0687  169.4699 C.ar    1  UNL1        0.0013
     26 C         140.2785  142.3258  168.2433 C.ar    1  UNL1        0.0150
@<TRIPOS>BOND
     1     1     2    2
     2     2     3    1
     3     3     4    1
     4     4     5    1
     5     5     6    1
     6     6     7    1
     7     7    12    1
     8    12    13    2
     9    13    14    1
    10    14    15    2
    11    15    16    1
    12    16    17    2
    13    17    18    1
    14    18    19    1
    15    19    20    2
    16     7     8    1
    17     8     9    1
    18     4    10    1
    19    10    11    1
    20    11    21    1
    21    21    22   ar
    22    22    23   ar
    23    23    24   ar
    24    24    25   ar
    25    25    26   ar
    26    11     2   am
    27    26    21   ar
    28     9     4    1
    29    20    12    1
    30    19    14    1
@<TRIPOS>MOLECULE
*****
 26 30 0 0 0
SMALL
GASTEIGER

@<TRIPOS>ATOM
      1 O         143.3152  138.7798  168.0844 O.2     1  UNL1       -0.2258
      2 C         142.5455  139.1503  166.8514 C.2     1  UNL1        0.4086
      3 O         142.7728  138.6045  165.4728 O.3     1  UNL1       -0.4396
      4 C         141.7811  139.2486  164.5499 C.3     1  UNL1        0.1624
      5 C         142.6972  138.2712  163.8750 C.3     1  UNL1        0.0825
      6 C         142.5683  138.0162  162.4025 C.3     1  UNL1        0.1713
      7 N         141.5234  138.7387  161.6049 N.pl3   1  UNL1       -0.1932
      8 C         140.6074  139.7161  162.2797 C.3     1  UNL1        0.1713
      9 C         140.7363  139.9711  163.7522 C.3     1  UNL1        0.0825
     10 C         140.9409  140.1926  165.3581 C.3     1  UNL1        0.1416
     11 N         141.4133  140.1318  166.7805 N.am    1  UNL1       -0.2215
     12 C         141.3946  138.4836  160.1323 C.cat   1  UNL1        0.4230
     13 N         140.1335  138.5861  159.3267 N.2     1  UNL1       -0.0678
     14 C         140.4638  138.2472  157.9034 C.2     1  UNL1        0.1887
     15 C         139.6196  138.1823  156.6652 C.2     1  UNL1        0.0395
     16 C         140.2408  137.8054  155.3528 C.2     1  UNL1       -0.0010
     17 C         141.7061  137.4935  155.2787 C.2     1  UNL1       -0.0181
     18 C         142.5503  137.5584  156.5169 C.3     1  UNL1        0.0932
     19 C         141.9292  137.9352  157.8292 C.2     1  UNL1        0.1744
     20 N         142.5044  138.0814  159.2067 N.2     1  UNL1       -0.0716
     21 C         140.8521  140.9149  167.9301 C.ar    1  UNL1        0.0571
     22 C         141.2712  142.3394  168.1429 C.ar    1  UNL1        0.0150
     23 C         140.7100  143.1225  169.2925 C.ar    1  UNL1        0.0013
     24 C         139.7296  142.4813  170.2294 C.ar    1  UNL1        0.0001
     25 C         139.3105  141.0568  170.0166 C.ar    1  UNL1        0.0013
     26 C         139.8718  140.2737  168.8669 C.ar    1  UNL1        0.0150
@<TRIPOS>BOND
     1     1     2    2
     2     2     3    1
     3     3     4    1
     4     4     5    1
     5     5     6    1
     6     6     7    1
     7     7    12    1
     8    12    13    2
     9    13    14    1
    10    14    15    2
    11    15    16    1
    12    16    17    2
    13    17    18    1
    14    18    19    1
    15    19    20    2
    16     7     8    1
    17     8     9    1
    18     4    10    1
    19    10    11    1
    20    11    21    1
    21    21    22   ar
    22    22    23   ar
    23    23    24   ar
    24    24    25   ar
    25    25    26   ar
    26    11     2   am
    27    26    21   ar
    28     9     4    1
    29    20    12    1
    30    19    14    1
@<TRIPOS>MOLECULE
*****
 26 30 0 0 0
SMALL
GASTEIGER

@<TRIPOS>ATOM
      1 O         140.8691  139.5161  166.1800 O.2     1  UNL1       -0.2258
      2 C         141.0418  140.8056  165.4334 C.2     1  UNL1        0.4086
      3 O         140.8535  141.0025  163.9583 O.3     1  UNL1       -0.4396
      4 C         141.1285  142.4432  163.6440 C.3     1  UNL1        0.1624
      5 C         140.7541  141.6186  162.4483 C.3     1  UNL1        0.0825
      6 C         140.6833  142.2542  161.0914 C.3     1  UNL1        0.1713
      7 N         140.9868  143.7143  160.9304 N.pl3   1  UNL1       -0.1932
      8 C         141.3611  144.5389  162.1261 C.3     1  UNL1        0.1713
      9 C         141.4320  143.9033  163.4830 C.3     1  UNL1        0.0825
     10 C         141.4867  143.1368  164.9250 C.3     1  UNL1        0.1416
     11 N         141.4332  142.1247  166.0308 N.am    1  UNL1       -0.2215
     12 C         140.9160  144.3498  159.5735 C.cat   1  UNL1        0.4230
     13 N         139.9738  145.4409  159.1590 N.2     1  UNL1       -0.0678
     14 C         140.2504  145.7712  157.7222 C.2     1  UNL1        0.1887
     15 C         139.6325  146.7651  156.7839 C.2     1  UNL1        0.0395
     16 C         140.1278  146.8719  155.3720 C.2     1  UNL1       -0.0010
     17 C         141.2409  145.9849  154.8985 C.2     1  UNL1       -0.0181
     18 C         141.8588  144.9911  155.8368 C.3     1  UNL1        0.0932
     19 C         141.3636  144.8842  157.2486 C.2     1  UNL1        0.1744
     20 N         141.7749  144.0058  158.3928 N.2     1  UNL1       -0.0716
     21 C         141.7205  142.3859  167.4796 C.ar    1  UNL1        0.0571
     22 C         140.6276  142.8707  168.3854 C.ar    1  UNL1        0.0150
     23 C         140.9150  143.1319  169.8343 C.ar    1  UNL1        0.0013
     24 C         142.2952  142.9083  170.3774 C.ar    1  UNL1        0.0001
     25 C         143.3882  142.4235  169.4715 C.ar    1  UNL1        0.0013
     26 C         143.1007  142.1623  168.0227 C.ar    1  UNL1        0.0150
@<TRIPOS>BOND
     1     1     2    2
     2     2     3    1
     3     3     4    1
     4     4     5    1
     5     5     6    1
     6     6     7    1
     7     7    12    1
     8    12    13    2
     9    13    14    1
    10    14    15    2
    11    15    16    1
    12    16    17    2
    13    17    18    1
    14    18    19    1
    15    19    20    2
    16     7     8    1
    17     8     9    1
    18     4    10    1
    19    10    11    1
    20    11    21    1
    21    21    22   ar
    22    22    23   ar
    23    23    24   ar
    24    24    25   ar
    25    25    26   ar
    26    11     2   am
    27    26    21   ar
    28     9     4    1
    29    20    12    1
    30    19    14    1
@<TRIPOS>MOLECULE
*****
 26 30 0 0 0
SMALL
GASTEIGER

@<TRIPOS>ATOM
      1 O         142.7364  144.1991  157.2667 O.2     1  UNL1       -0.2258
      2 C         143.2229  143.5931  158.5497 C.2     1  UNL1        0.4086
      3 O         142.5877  143.7566  159.8988 O.3     1  UNL1       -0.4396
      4 C         143.4023  142.9817  160.8917 C.3     1  UNL1        0.1624
      5 C         142.2190  143.6840  161.4889 C.3     1  UNL1        0.0825
      6 C         141.9434  143.5713  162.9590 C.3     1  UNL1        0.1713
      7 N         142.8510  142.7563  163.8319 N.pl3   1  UNL1       -0.1932
      8 C         144.0343  142.0541  163.2348 C.3     1  UNL1        0.1713
      9 C         144.3100  142.1668  161.7647 C.3     1  UNL1        0.0825
     10 C         144.5410  142.3393  160.1563 C.3     1  UNL1        0.1416
     11 N         144.4302  142.7171  158.7089 N.am    1  UNL1       -0.2215
     12 C         142.5753  142.6437  165.3021 C.cat   1  UNL1        0.4230
     13 N         141.2238  142.6855  165.9515 N.2     1  UNL1       -0.0678
     14 C         141.4160  142.5371  167.4317 C.2     1  UNL1        0.1887
     15 C         140.4421  142.5063  168.5722 C.2     1  UNL1        0.0395
     16 C         140.9386  142.3419  169.9781 C.2     1  UNL1       -0.0010
     17 C         142.4089  142.2084  170.2435 C.2     1  UNL1       -0.0181
     18 C         143.3827  142.2392  169.1031 C.3     1  UNL1        0.0932
     19 C         142.8863  142.4036  167.6972 C.2     1  UNL1        0.1744
     20 N         143.6028  142.4694  166.3810 N.2     1  UNL1       -0.0716
     21 C         145.3627  142.2934  157.6132 C.ar    1  UNL1        0.0571
     22 C         144.9294  141.2581  156.6181 C.ar    1  UNL1        0.0150
     23 C         145.8620  140.8343  155.5223 C.ar    1  UNL1        0.0013
     24 C         147.2280  141.4459  155.4217 C.ar    1  UNL1        0.0001
     25 C         147.6613  142.4813  156.4169 C.ar    1  UNL1        0.0013
     26 C         146.7287  142.9050  157.5126 C.ar    1  UNL1        0.0150
@<TRIPOS>BOND
     1     1     2    2
     2     2     3    1
     3     3     4    1
     4     4     5    1
     5     5     6    1
     6     6     7    1
     7     7    12    1
     8    12    13    2
     9    13    14    1
    10    14    15    2
    11    15    16    1
    12    16    17    2
    13    17    18    1
    14    18    19    1
    15    19    20    2
    16     7     8    1
    17     8     9    1
    18     4    10    1
    19    10    11    1
    20    11    21    1
    21    21    22   ar
    22    22    23   ar
    23    23    24   ar
    24    24    25   ar
    25    25    26   ar
    26    11     2   am
    27    26    21   ar
    28     9     4    1
    29    20    12    1
    30    19    14    1
@<TRIPOS>MOLECULE
*****
 26 30 0 0 0
SMALL
GASTEIGER

@<TRIPOS>ATOM
      1 O         143.2293  138.6362  168.4365 O.2     1  UNL1       -0.2258
      2 C         142.8031  139.2746  167.1478 C.2     1  UNL1        0.4086
      3 O         143.2759  138.8934  165.7762 O.3     1  UNL1       -0.4396
      4 C         142.5942  139.7896  164.7851 C.3     1  UNL1        0.1624
      5 C         143.5280  138.7929  164.1650 C.3     1  UNL1        0.0825
      6 C         143.7087  138.7599  162.6763 C.3     1  UNL1        0.1713
      7 N         142.9556  139.7235  161.8078 N.pl3   1  UNL1       -0.1932
      8 C         142.0218  140.7202  162.4280 C.3     1  UNL1        0.1713
      9 C         141.8411  140.7532  163.9166 C.3     1  UNL1        0.0825
     10 C         141.7000  140.7247  165.5443 C.3     1  UNL1        0.1416
     11 N         141.8291  140.4065  167.0044 N.am    1  UNL1       -0.2215
     12 C         143.1363  139.6904  160.3190 C.cat   1  UNL1        0.4230
     13 N         143.9426  140.6601  159.5070 N.2     1  UNL1       -0.0678
     14 C         143.8471  140.2507  158.0671 C.2     1  UNL1        0.1887
     15 C         144.4363  140.8334  156.8167 C.2     1  UNL1        0.0395
     16 C         144.1601  140.1933  155.4885 C.2     1  UNL1       -0.0010
     17 C         143.2947  138.9706  155.4107 C.2     1  UNL1       -0.0181
     18 C         142.7056  138.3879  156.6611 C.3     1  UNL1        0.0932
     19 C         142.9817  139.0280  157.9892 C.2     1  UNL1        0.1744
     20 N         142.5425  138.6817  159.3810 N.2     1  UNL1       -0.0716
     21 C         141.1105  141.0985  168.1245 C.ar    1  UNL1        0.0571
     22 C         141.4130  142.5342  168.4359 C.ar    1  UNL1        0.0150
     23 C         140.6944  143.2262  169.5560 C.ar    1  UNL1        0.0013
     24 C         139.6732  142.4825  170.3647 C.ar    1  UNL1        0.0001
     25 C         139.3706  141.0466  170.0533 C.ar    1  UNL1        0.0013
     26 C         140.0893  140.3547  168.9331 C.ar    1  UNL1        0.0150
@<TRIPOS>BOND
     1     1     2    2
     2     2     3    1
     3     3     4    1
     4     4     5    1
     5     5     6    1
     6     6     7    1
     7     7    12    1
     8    12    13    2
     9    13    14    1
    10    14    15    2
    11    15    16    1
    12    16    17    2
    13    17    18    1
    14    18    19    1
    15    19    20    2
    16     7     8    1
    17     8     9    1
    18     4    10    1
    19    10    11    1
    20    11    21    1
    21    21    22   ar
    22    22    23   ar
    23    23    24   ar
    24    24    25   ar
    25    25    26   ar
    26    11     2   am
    27    26    21   ar
    28     9     4    1
    29    20    12    1
    30    19    14    1
@<TRIPOS>MOLECULE
*****
 26 30 0 0 0
SMALL
GASTEIGER

@<TRIPOS>ATOM
      1 O         141.1165  136.7446  164.6106 O.2     1  UNL1       -0.2258
      2 C         140.4998  137.9468  163.9591 C.2     1  UNL1        0.4086
      3 O         140.1122  138.0654  162.5149 O.3     1  UNL1       -0.4396
      4 C         139.5353  139.4334  162.3006 C.3     1  UNL1        0.1624
      5 C         139.5689  138.5849  161.0641 C.3     1  UNL1        0.0825
      6 C         139.0517  139.1303  159.7661 C.3     1  UNL1        0.1713
      7 N         138.5010  140.5241  159.7044 N.pl3   1  UNL1       -0.1932
      8 C         138.4674  141.3726  160.9409 C.3     1  UNL1        0.1713
      9 C         138.9846  140.8273  162.2390 C.3     1  UNL1        0.0825
     10 C         139.5664  140.1602  163.6125 C.3     1  UNL1        0.1416
     11 N         140.1624  139.2415  164.6374 N.am    1  UNL1       -0.2215
     12 C         137.9838  141.0695  158.4063 C.cat   1  UNL1        0.4230
     13 N         137.2733  140.2871  157.3418 N.2     1  UNL1       -0.0678
     14 C         136.9368  141.2271  156.2224 C.2     1  UNL1        0.1887
     15 C         136.2377  141.0177  154.9118 C.2     1  UNL1        0.0395
     16 C         136.0411  142.1718  153.9739 C.2     1  UNL1       -0.0010
     17 C         136.5435  143.5351  154.3465 C.2     1  UNL1       -0.0181
     18 C         137.2426  143.7444  155.6571 C.3     1  UNL1        0.0932
     19 C         137.4392  142.5905  156.5950 C.2     1  UNL1        0.1744
     20 N         138.0863  142.4931  157.9447 N.2     1  UNL1       -0.0716
     21 C         140.3825  139.5612  166.0863 C.ar    1  UNL1        0.0571
     22 C         141.7763  139.7352  166.6126 C.ar    1  UNL1        0.0150
     23 C         141.9964  140.0550  168.0615 C.ar    1  UNL1        0.0013
     24 C         140.8227  140.2008  168.9841 C.ar    1  UNL1        0.0001
     25 C         139.4288  140.0268  168.4578 C.ar    1  UNL1        0.0013
     26 C         139.2088  139.7070  167.0088 C.ar    1  UNL1        0.0150
@<TRIPOS>BOND
     1     1     2    2
     2     2     3    1
     3     3     4    1
     4     4     5    1
     5     5     6    1
     6     6     7    1
     7     7    12    1
     8    12    13    2
     9    13    14    1
    10    14    15    2
    11    15    16    1
    12    16    17    2
    13    17    18    1
    14    18    19    1
    15    19    20    2
    16     7     8    1
    17     8     9    1
    18     4    10    1
    19    10    11    1
    20    11    21    1
    21    21    22   ar
    22    22    23   ar
    23    23    24   ar
    24    24    25   ar
    25    25    26   ar
    26    11     2   am
    27    26    21   ar
    28     9     4    1
    29    20    12    1
    30    19    14    1
