@<TRIPOS>MOLECULE
*****
 33 35 0 0 0
SMALL
GASTEIGER

@<TRIPOS>ATOM
      1 S         141.4829  143.6839  163.2028 S.O2    1  UNL1        0.0633
      2 O         141.8363  145.0732  163.6444 O.2     1  UNL1       -0.1528
      3 O         141.1294  142.2947  162.7613 O.2     1  UNL1       -0.1528
      4 C         139.0329  143.9124  164.9191 C.3     1  UNL1        0.0206
      5 C         140.2955  143.3353  165.4873 C.3     1  UNL1        0.0956
      6 C         140.3331  142.8724  166.9135 C.3     1  UNL1        0.0900
      7 N         141.5957  142.2953  167.4817 N.3     1  UNL1       -0.2698
      8 C         142.8207  142.1811  166.6236 C.3     1  UNL1        0.0915
      9 C         142.7830  142.6440  165.1974 C.3     1  UNL1        0.1131
     10 N         141.5204  143.2210  164.6292 N.3     1  UNL1       -0.1541
     11 C         141.6333  141.8325  168.9081 C.3     1  UNL1        0.0807
     12 C         140.3613  141.4554  169.6080 C.3     1  UNL1        0.0833
     13 C         139.1260  140.6847  169.9686 C.3     1  UNL1        0.0105
     14 C         140.0253  140.1909  168.8744 C.3     1  UNL1        0.0105
     15 C         140.2555  142.5890  170.5846 C.2     1  UNL1        0.2198
     16 N         140.1401  143.9993  170.0872 N.am    1  UNL1       -0.3288
     17 O         140.2650  142.3121  172.0589 O.2     1  UNL1       -0.2753
     18 H         140.1339  144.1810  169.1196 H       1  UNL1        0.1449
     19 H         140.0707  144.7433  170.7282 H       1  UNL1        0.1449
     20 C         141.4453  144.1468  161.7766 C.ar    1  UNL1        0.1222
     21 C         140.3952  145.1212  161.3317 C.ar    1  UNL1        0.0197
     22 C         140.3577  145.5840  159.9053 C.ar    1  UNL1       -0.0004
     23 C         141.3702  145.0726  158.9239 C.ar    1  UNL1        0.0099
     24 C         142.4203  144.0982  159.3688 C.ar    1  UNL1       -0.0004
     25 C         142.4579  143.6353  160.7951 C.ar    1  UNL1        0.0197
     26 C         141.3326  145.5355  157.4977 C.3     1  UNL1        0.1945
     27 C         141.2950  145.9983  156.0713 C.3     1  UNL1        0.0428
     28 O         142.5969  146.3123  157.7165 O.3     1  UNL1       -0.3751
     29 H         142.8924  146.1975  158.6333 H       1  UNL1        0.2110
     30 C         140.0683  144.7586  157.2789 C.3     1  UNL1        0.4230
     31 F         138.8039  143.9817  157.0600 F       1  UNL1       -0.1673
     32 F         140.4687  143.3351  157.5306 F       1  UNL1       -0.1673
     33 F         139.3402  146.0320  156.9648 F       1  UNL1       -0.1673
@<TRIPOS>BOND
     1     5     4    1
     2     5     6    1
     3     6     7    1
     4     7    11    1
     5    11    12    1
     6    12    15    1
     7    15    16   am
     8    15    17    2
     9    12    13    1
    10    13    14    1
    11     7     8    1
    12     8     9    1
    13     9    10    1
    14    10     1    1
    15     1     2    2
    16     1     3    2
    17     1    20    1
    18    20    21   ar
    19    21    22   ar
    20    22    23   ar
    21    23    26    1
    22    26    27    1
    23    26    28    1
    24    26    30    1
    25    30    31    1
    26    30    32    1
    27    30    33    1
    28    23    24   ar
    29    24    25   ar
    30    10     5    1
    31    25    20   ar
    32    14    12    1
    33    16    18    1
    34    16    19    1
    35    28    29    1
@<TRIPOS>MOLECULE
*****
 33 35 0 0 0
SMALL
GASTEIGER

@<TRIPOS>ATOM
      1 S         140.5521  138.8225  162.2638 S.O2    1  UNL1        0.0633
      2 O         140.3248  137.3582  162.4964 O.2     1  UNL1       -0.1528
      3 O         140.7793  140.2868  162.0312 O.2     1  UNL1       -0.1528
      4 C         143.3502  138.1181  161.4428 C.3     1  UNL1        0.0206
      5 C         142.2627  138.1929  160.4124 C.3     1  UNL1        0.0956
      6 C         142.5742  137.9156  158.9716 C.3     1  UNL1        0.0900
      7 N         141.4866  137.9905  157.9413 N.3     1  UNL1       -0.2698
      8 C         140.0876  138.3427  158.3517 C.3     1  UNL1        0.0915
      9 C         139.7761  138.6200  159.7926 C.3     1  UNL1        0.1131
     10 N         140.8636  138.5451  160.8229 N.3     1  UNL1       -0.1541
     11 C         141.7982  137.7132  156.5004 C.3     1  UNL1        0.0807
     12 C         141.7960  136.3024  155.9907 C.3     1  UNL1        0.0833
     13 C         141.3124  135.0377  155.3452 C.3     1  UNL1        0.0105
     14 C         140.4094  136.2327  155.4229 C.3     1  UNL1        0.0105
     15 C         143.1819  135.8822  156.3814 C.2     1  UNL1        0.2198
     16 N         143.3827  134.6782  157.2532 N.am    1  UNL1       -0.3288
     17 O         144.3670  136.6659  155.9002 O.2     1  UNL1       -0.2753
     18 H         142.6049  134.1639  157.5690 H       1  UNL1        0.1449
     19 H         144.2923  134.4024  157.5096 H       1  UNL1        0.1449
     20 C         140.2405  139.0998  163.7046 C.ar    1  UNL1        0.1222
     21 C         138.8409  139.4492  164.1155 C.ar    1  UNL1        0.0197
     22 C         138.5293  139.7265  165.5564 C.ar    1  UNL1       -0.0004
     23 C         139.6174  139.6543  166.5863 C.ar    1  UNL1        0.0099
     24 C         141.0171  139.3048  166.1754 C.ar    1  UNL1       -0.0004
     25 C         141.3286  139.0276  164.7346 C.ar    1  UNL1        0.0197
     26 C         139.3059  139.9316  168.0272 C.3     1  UNL1        0.1945
     27 C         138.9943  140.2089  169.4681 C.3     1  UNL1        0.0428
     28 O         138.1894  138.9310  167.9783 O.3     1  UNL1       -0.3751
     29 H         138.1387  138.5463  167.0893 H       1  UNL1        0.2110
     30 C         140.4223  140.9321  168.0760 C.3     1  UNL1        0.4230
     31 F         141.5388  141.9327  168.1249 F       1  UNL1       -0.1673
     32 F         139.9628  142.0335  167.1673 F       1  UNL1       -0.1673
     33 F         141.1745  140.0465  169.0248 F       1  UNL1       -0.1673
@<TRIPOS>BOND
     1     5     4    1
     2     5     6    1
     3     6     7    1
     4     7    11    1
     5    11    12    1
     6    12    15    1
     7    15    16   am
     8    15    17    2
     9    12    13    1
    10    13    14    1
    11     7     8    1
    12     8     9    1
    13     9    10    1
    14    10     1    1
    15     1     2    2
    16     1     3    2
    17     1    20    1
    18    20    21   ar
    19    21    22   ar
    20    22    23   ar
    21    23    26    1
    22    26    27    1
    23    26    28    1
    24    26    30    1
    25    30    31    1
    26    30    32    1
    27    30    33    1
    28    23    24   ar
    29    24    25   ar
    30    10     5    1
    31    25    20   ar
    32    14    12    1
    33    16    18    1
    34    16    19    1
    35    28    29    1
@<TRIPOS>MOLECULE
*****
 33 35 0 0 0
SMALL
GASTEIGER

@<TRIPOS>ATOM
      1 S         142.5875  142.6238  164.1565 S.O2    1  UNL1        0.0633
      2 O         142.9398  144.0714  164.3301 O.2     1  UNL1       -0.1528
      3 O         142.2353  141.1761  163.9830 O.2     1  UNL1       -0.1528
      4 C         145.3560  141.9301  163.2322 C.3     1  UNL1        0.0206
      5 C         144.3208  142.3666  162.2383 C.3     1  UNL1        0.0956
      6 C         144.6699  142.4563  160.7822 C.3     1  UNL1        0.0900
      7 N         143.6347  142.8928  159.7884 N.3     1  UNL1       -0.2698
      8 C         142.2505  143.2397  160.2505 C.3     1  UNL1        0.0915
      9 C         141.9014  143.1500  161.7065 C.3     1  UNL1        0.1131
     10 N         142.9366  142.7134  162.7004 N.3     1  UNL1       -0.1541
     11 C         143.9838  142.9825  158.3322 C.3     1  UNL1        0.0807
     12 C         144.5469  141.7879  157.6211 C.3     1  UNL1        0.0833
     13 C         145.4816  140.9435  156.8066 C.3     1  UNL1        0.0105
     14 C         145.8124  142.3814  157.0768 C.3     1  UNL1        0.0105
     15 C         143.4769  140.7795  157.9183 C.2     1  UNL1        0.2198
     16 N         142.0595  141.0464  157.5065 N.am    1  UNL1       -0.3288
     17 O         143.8245  139.5041  158.6274 O.2     1  UNL1       -0.2753
     18 H         141.8314  141.8835  157.0412 H       1  UNL1        0.1449
     19 H         141.3573  140.3846  157.7016 H       1  UNL1        0.1449
     20 C         142.2385  142.5341  165.6126 C.ar    1  UNL1        0.1222
     21 C         140.8135  142.6930  166.0534 C.ar    1  UNL1        0.0197
     22 C         140.4645  142.6033  167.5095 C.ar    1  UNL1       -0.0004
     23 C         141.5404  142.3548  168.5247 C.ar    1  UNL1        0.0099
     24 C         142.9653  142.1960  168.0839 C.ar    1  UNL1       -0.0004
     25 C         143.3144  142.2856  166.6279 C.ar    1  UNL1        0.0197
     26 C         141.1913  142.2652  169.9808 C.3     1  UNL1        0.1945
     27 C         140.8422  142.1755  171.4369 C.3     1  UNL1        0.0428
     28 O         142.1668  143.3640  170.2823 O.3     1  UNL1       -0.3751
     29 H         142.5899  143.6555  169.4595 H       1  UNL1        0.2110
     30 C         140.2158  141.1664  169.6792 C.3     1  UNL1        0.4230
     31 F         139.2403  140.0675  169.3777 F       1  UNL1       -0.1673
     32 F         141.0666  140.0735  169.1033 F       1  UNL1       -0.1673
     33 F         139.0955  142.0187  170.1977 F       1  UNL1       -0.1673
@<TRIPOS>BOND
     1     5     4    1
     2     5     6    1
     3     6     7    1
     4     7    11    1
     5    11    12    1
     6    12    15    1
     7    15    16   am
     8    15    17    2
     9    12    13    1
    10    13    14    1
    11     7     8    1
    12     8     9    1
    13     9    10    1
    14    10     1    1
    15     1     2    2
    16     1     3    2
    17     1    20    1
    18    20    21   ar
    19    21    22   ar
    20    22    23   ar
    21    23    26    1
    22    26    27    1
    23    26    28    1
    24    26    30    1
    25    30    31    1
    26    30    32    1
    27    30    33    1
    28    23    24   ar
    29    24    25   ar
    30    10     5    1
    31    25    20   ar
    32    14    12    1
    33    16    18    1
    34    16    19    1
    35    28    29    1
@<TRIPOS>MOLECULE
*****
 33 35 0 0 0
SMALL
GASTEIGER

@<TRIPOS>ATOM
      1 S         141.8571  139.0581  164.2676 S.O2    1  UNL1        0.0633
      2 O         142.0595  140.5043  163.9251 O.2     1  UNL1       -0.1528
      3 O         141.6548  137.6118  164.6101 O.2     1  UNL1       -0.1528
      4 C         139.5342  139.0107  162.3697 C.3     1  UNL1        0.0206
      5 C         140.9093  138.6641  161.8809 C.3     1  UNL1        0.0956
      6 C         141.1229  138.2938  160.4431 C.3     1  UNL1        0.0900
      7 N         142.4980  137.9472  159.9543 N.3     1  UNL1       -0.2698
      8 C         143.6594  137.9708  160.9031 C.3     1  UNL1        0.0915
      9 C         143.4458  138.3411  162.3409 C.3     1  UNL1        0.1131
     10 N         142.0707  138.6878  162.8298 N.3     1  UNL1       -0.1541
     11 C         142.7116  137.5768  158.5164 C.3     1  UNL1        0.0807
     12 C         142.2942  138.5216  157.4287 C.3     1  UNL1        0.0833
     13 C         141.5560  139.0679  156.2427 C.3     1  UNL1        0.0105
     14 C         141.2253  137.7025  156.7680 C.3     1  UNL1        0.0105
     15 C         143.2182  139.6689  157.7115 C.2     1  UNL1        0.2198
     16 N         142.7555  140.8114  158.5662 N.am    1  UNL1       -0.3288
     17 O         144.6049  139.6738  157.1394 O.2     1  UNL1       -0.2753
     18 H         141.8454  140.8082  158.9417 H       1  UNL1        0.1449
     19 H         143.3619  141.5644  158.7518 H       1  UNL1        0.1449
     20 C         141.6435  139.4284  165.7054 C.ar    1  UNL1        0.1222
     21 C         142.7876  139.3671  166.6736 C.ar    1  UNL1        0.0197
     22 C         142.5739  139.7375  168.1114 C.ar    1  UNL1       -0.0004
     23 C         141.2163  140.1691  168.5809 C.ar    1  UNL1        0.0099
     24 C         140.0723  140.2305  167.6127 C.ar    1  UNL1       -0.0004
     25 C         140.2859  139.8601  166.1750 C.ar    1  UNL1        0.0197
     26 C         141.0027  140.5395  170.0187 C.3     1  UNL1        0.1945
     27 C         140.7891  140.9099  171.4565 C.3     1  UNL1        0.0428
     28 O         141.4844  139.1828  170.4397 O.3     1  UNL1       -0.3751
     29 H         141.7185  138.6645  169.6539 H       1  UNL1        0.2110
     30 C         140.5211  141.8962  169.5977 C.3     1  UNL1        0.4230
     31 F         140.0394  143.2530  169.1766 F       1  UNL1       -0.1673
     32 F         141.7338  142.5411  168.9950 F       1  UNL1       -0.1673
     33 F         139.1509  141.5700  170.1138 F       1  UNL1       -0.1673
@<TRIPOS>BOND
     1     5     4    1
     2     5     6    1
     3     6     7    1
     4     7    11    1
     5    11    12    1
     6    12    15    1
     7    15    16   am
     8    15    17    2
     9    12    13    1
    10    13    14    1
    11     7     8    1
    12     8     9    1
    13     9    10    1
    14    10     1    1
    15     1     2    2
    16     1     3    2
    17     1    20    1
    18    20    21   ar
    19    21    22   ar
    20    22    23   ar
    21    23    26    1
    22    26    27    1
    23    26    28    1
    24    26    30    1
    25    30    31    1
    26    30    32    1
    27    30    33    1
    28    23    24   ar
    29    24    25   ar
    30    10     5    1
    31    25    20   ar
    32    14    12    1
    33    16    18    1
    34    16    19    1
    35    28    29    1
@<TRIPOS>MOLECULE
*****
 33 35 0 0 0
SMALL
GASTEIGER

@<TRIPOS>ATOM
      1 S         140.7852  142.5124  163.5129 S.O2    1  UNL1        0.0633
      2 O         139.3240  142.6729  163.8112 O.2     1  UNL1       -0.1528
      3 O         142.2464  142.3518  163.2146 O.2     1  UNL1       -0.1528
      4 C         141.2816  145.4537  163.1925 C.3     1  UNL1        0.0206
      5 C         140.8326  144.6365  162.0175 C.3     1  UNL1        0.0956
      6 C         140.6318  145.2899  160.6824 C.3     1  UNL1        0.0900
      7 N         140.1828  144.4727  159.5074 N.3     1  UNL1       -0.2698
      8 C         139.9346  143.0021  159.6676 C.3     1  UNL1        0.0915
      9 C         140.1354  142.3487  161.0027 C.3     1  UNL1        0.1131
     10 N         140.5844  143.1659  162.1777 N.3     1  UNL1       -0.1541
     11 C         139.9819  145.1262  158.1722 C.3     1  UNL1        0.0807
     12 C         140.6895  144.5925  156.9620 C.3     1  UNL1        0.0833
     13 C         140.9023  143.9763  155.6111 C.3     1  UNL1        0.0105
     14 C         139.5107  144.1695  156.1365 C.3     1  UNL1        0.0105
     15 C         142.1140  144.8302  157.3672 C.2     1  UNL1        0.2198
     16 N         142.5614  146.2057  157.7641 N.am    1  UNL1       -0.3288
     17 O         143.0912  143.6921  157.3756 O.2     1  UNL1       -0.2753
     18 H         141.9200  146.9526  157.7586 H       1  UNL1        0.1449
     19 H         143.4964  146.3617  158.0300 H       1  UNL1        0.1449
     20 C         140.9860  141.8589  164.8481 C.ar    1  UNL1        0.1222
     21 C         140.8881  142.6733  166.1039 C.ar    1  UNL1        0.0197
     22 C         141.0889  142.0198  167.4391 C.ar    1  UNL1       -0.0004
     23 C         141.3875  140.5520  167.5184 C.ar    1  UNL1        0.0099
     24 C         141.4854  139.7376  166.2625 C.ar    1  UNL1       -0.0004
     25 C         141.2846  140.3910  164.9274 C.ar    1  UNL1        0.0197
     26 C         141.5883  139.8985  168.8535 C.3     1  UNL1        0.1945
     27 C         141.7890  139.2450  170.1888 C.3     1  UNL1        0.0428
     28 O         142.9605  139.4620  168.4336 O.3     1  UNL1       -0.3751
     29 H         143.1339  139.7663  167.5290 H       1  UNL1        0.2110
     30 C         140.2161  140.3350  169.2735 C.3     1  UNL1        0.4230
     31 F         138.8438  140.7715  169.6935 F       1  UNL1       -0.1673
     32 F         139.2985  139.5736  168.3634 F       1  UNL1       -0.1673
     33 F         140.8195  141.2287  170.3163 F       1  UNL1       -0.1673
@<TRIPOS>BOND
     1     5     4    1
     2     5     6    1
     3     6     7    1
     4     7    11    1
     5    11    12    1
     6    12    15    1
     7    15    16   am
     8    15    17    2
     9    12    13    1
    10    13    14    1
    11     7     8    1
    12     8     9    1
    13     9    10    1
    14    10     1    1
    15     1     2    2
    16     1     3    2
    17     1    20    1
    18    20    21   ar
    19    21    22   ar
    20    22    23   ar
    21    23    26    1
    22    26    27    1
    23    26    28    1
    24    26    30    1
    25    30    31    1
    26    30    32    1
    27    30    33    1
    28    23    24   ar
    29    24    25   ar
    30    10     5    1
    31    25    20   ar
    32    14    12    1
    33    16    18    1
    34    16    19    1
    35    28    29    1
@<TRIPOS>MOLECULE
*****
 33 35 0 0 0
SMALL
GASTEIGER

@<TRIPOS>ATOM
      1 S         141.7771  143.3131  163.9073 S.O2    1  UNL1        0.0633
      2 O         140.7941  142.2301  163.5748 O.2     1  UNL1       -0.1528
      3 O         142.7601  144.3962  164.2398 O.2     1  UNL1       -0.1528
      4 C         139.8891  145.3990  162.8659 C.3     1  UNL1        0.0206
      5 C         140.8806  144.7564  161.9418 C.3     1  UNL1        0.0956
      6 C         140.9282  145.1567  160.4970 C.3     1  UNL1        0.0900
      7 N         141.9197  144.5141  159.5729 N.3     1  UNL1       -0.2698
      8 C         142.8637  143.4712  160.0936 C.3     1  UNL1        0.0915
      9 C         142.8162  143.0709  161.5384 C.3     1  UNL1        0.1131
     10 N         141.8246  143.7135  162.4625 N.3     1  UNL1       -0.1541
     11 C         141.9673  144.9145  158.1281 C.3     1  UNL1        0.0807
     12 C         140.7503  144.7561  157.2655 C.3     1  UNL1        0.0833
     13 C         139.6053  145.1122  156.3643 C.3     1  UNL1        0.0105
     14 C         140.5347  146.1825  156.8547 C.3     1  UNL1        0.0105
     15 C         140.5433  143.2746  157.3767 C.2     1  UNL1        0.2198
     16 N         139.4507  142.7335  158.2504 N.am    1  UNL1       -0.3288
     17 O         141.4290  142.3342  156.6142 O.2     1  UNL1       -0.2753
     18 H         138.8694  143.3507  158.7508 H       1  UNL1        0.1449
     19 H         139.3148  141.7611  158.3233 H       1  UNL1        0.1449
     20 C         141.7296  142.9127  165.3521 C.ar    1  UNL1        0.1222
     21 C         140.4259  142.9338  166.0937 C.ar    1  UNL1        0.0197
     22 C         140.3784  142.5333  167.5385 C.ar    1  UNL1       -0.0004
     23 C         141.6345  142.1119  168.2417 C.ar    1  UNL1        0.0099
     24 C         142.9382  142.0908  167.5001 C.ar    1  UNL1       -0.0004
     25 C         142.9857  142.4912  166.0553 C.ar    1  UNL1        0.0197
     26 C         141.5870  141.7115  169.6864 C.3     1  UNL1        0.1945
     27 C         141.5394  141.3111  171.1313 C.3     1  UNL1        0.0428
     28 O         142.3449  140.4579  169.3640 O.3     1  UNL1       -0.3751
     29 H         142.5373  140.4318  168.4136 H       1  UNL1        0.2110
     30 C         140.8290  142.9650  170.0089 C.3     1  UNL1        0.4230
     31 F         140.0710  144.2187  170.3314 F       1  UNL1       -0.1673
     32 F         139.4087  142.5041  170.1510 F       1  UNL1       -0.1673
     33 F         142.1038  143.7529  169.9429 F       1  UNL1       -0.1673
@<TRIPOS>BOND
     1     5     4    1
     2     5     6    1
     3     6     7    1
     4     7    11    1
     5    11    12    1
     6    12    15    1
     7    15    16   am
     8    15    17    2
     9    12    13    1
    10    13    14    1
    11     7     8    1
    12     8     9    1
    13     9    10    1
    14    10     1    1
    15     1     2    2
    16     1     3    2
    17     1    20    1
    18    20    21   ar
    19    21    22   ar
    20    22    23   ar
    21    23    26    1
    22    26    27    1
    23    26    28    1
    24    26    30    1
    25    30    31    1
    26    30    32    1
    27    30    33    1
    28    23    24   ar
    29    24    25   ar
    30    10     5    1
    31    25    20   ar
    32    14    12    1
    33    16    18    1
    34    16    19    1
    35    28    29    1
@<TRIPOS>MOLECULE
*****
 33 35 0 0 0
SMALL
GASTEIGER

@<TRIPOS>ATOM
      1 S         140.9696  143.0080  164.1346 S.O2    1  UNL1        0.0633
      2 O         139.5027  143.1364  164.4199 O.2     1  UNL1       -0.1528
      3 O         142.4366  142.8796  163.8493 O.2     1  UNL1       -0.1528
      4 C         140.3918  141.0479  161.9381 C.3     1  UNL1        0.0206
      5 C         140.4512  142.5161  161.6367 C.3     1  UNL1        0.0956
      6 C         140.2217  143.0043  160.2371 C.3     1  UNL1        0.0900
      7 N         140.2810  144.4724  159.9356 N.3     1  UNL1       -0.2698
      8 C         140.5699  145.4525  161.0338 C.3     1  UNL1        0.0915
      9 C         140.7995  144.9643  162.4334 C.3     1  UNL1        0.1131
     10 N         140.7401  143.4961  162.7349 N.3     1  UNL1       -0.1541
     11 C         140.0515  144.9606  158.5359 C.3     1  UNL1        0.0807
     12 C         140.8794  144.4200  157.4079 C.3     1  UNL1        0.0833
     13 C         141.2363  143.7087  156.1364 C.3     1  UNL1        0.0105
     14 C         139.8112  143.7408  156.6031 C.3     1  UNL1        0.0105
     15 C         142.2350  144.9115  157.8209 C.2     1  UNL1        0.2198
     16 N         142.5830  146.3632  157.6750 N.am    1  UNL1       -0.3288
     17 O         143.2427  143.9512  158.3799 O.2     1  UNL1       -0.2753
     18 H         141.9217  146.9935  157.3081 H       1  UNL1        0.1449
     19 H         143.4728  146.6858  157.9460 H       1  UNL1        0.1449
     20 C         141.1991  142.5199  165.5342 C.ar    1  UNL1        0.1222
     21 C         140.0366  142.0879  166.3780 C.ar    1  UNL1        0.0197
     22 C         140.2661  141.5998  167.7777 C.ar    1  UNL1       -0.0004
     23 C         141.6582  141.5437  168.3336 C.ar    1  UNL1        0.0099
     24 C         142.8207  141.9756  167.4898 C.ar    1  UNL1       -0.0004
     25 C         142.5912  142.4637  166.0902 C.ar    1  UNL1        0.0197
     26 C         141.8877  141.0556  169.7332 C.3     1  UNL1        0.1945
     27 C         142.1172  140.5675  171.1329 C.3     1  UNL1        0.0428
     28 O         141.2000  139.7658  169.3962 O.3     1  UNL1       -0.3751
     29 H         140.9119  139.7854  168.4702 H       1  UNL1        0.2110
     30 C         142.5753  142.3453  170.0702 C.3     1  UNL1        0.4230
     31 F         143.2629  143.6352  170.4073 F       1  UNL1       -0.1673
     32 F         141.4725  143.3618  170.0461 F       1  UNL1       -0.1673
     33 F         143.8835  141.6194  170.1792 F       1  UNL1       -0.1673
@<TRIPOS>BOND
     1     5     4    1
     2     5     6    1
     3     6     7    1
     4     7    11    1
     5    11    12    1
     6    12    15    1
     7    15    16   am
     8    15    17    2
     9    12    13    1
    10    13    14    1
    11     7     8    1
    12     8     9    1
    13     9    10    1
    14    10     1    1
    15     1     2    2
    16     1     3    2
    17     1    20    1
    18    20    21   ar
    19    21    22   ar
    20    22    23   ar
    21    23    26    1
    22    26    27    1
    23    26    28    1
    24    26    30    1
    25    30    31    1
    26    30    32    1
    27    30    33    1
    28    23    24   ar
    29    24    25   ar
    30    10     5    1
    31    25    20   ar
    32    14    12    1
    33    16    18    1
    34    16    19    1
    35    28    29    1
@<TRIPOS>MOLECULE
*****
 33 35 0 0 0
SMALL
GASTEIGER

@<TRIPOS>ATOM
      1 S         141.7141  142.5776  163.8079 S.O2    1  UNL1        0.0633
      2 O         141.0987  143.9434  163.8834 O.2     1  UNL1       -0.1528
      3 O         142.3295  141.2118  163.7323 O.2     1  UNL1       -0.1528
      4 C         144.2104  143.6300  162.5191 C.3     1  UNL1        0.0206
      5 C         143.0427  143.2227  161.6704 C.3     1  UNL1        0.0956
      6 C         143.1230  143.3416  160.1773 C.3     1  UNL1        0.0900
      7 N         141.9553  142.9342  159.3285 N.3     1  UNL1       -0.2698
      8 C         140.7071  142.4080  159.9729 C.3     1  UNL1        0.0915
      9 C         140.6268  142.2892  161.4660 C.3     1  UNL1        0.1131
     10 N         141.7945  142.6965  162.3147 N.3     1  UNL1       -0.1541
     11 C         142.0357  143.0531  157.8354 C.3     1  UNL1        0.0807
     12 C         141.0463  143.9046  157.0965 C.3     1  UNL1        0.0833
     13 C         139.9936  144.3045  156.1056 C.3     1  UNL1        0.0105
     14 C         140.5203  142.9002  156.1144 C.3     1  UNL1        0.0105
     15 C         141.2285  145.2048  157.8219 C.2     1  UNL1        0.2198
     16 N         142.5354  145.9358  157.7343 N.am    1  UNL1       -0.3288
     17 O         140.1038  145.7741  158.6349 O.2     1  UNL1       -0.2753
     18 H         143.2736  145.5621  157.2006 H       1  UNL1        0.1449
     19 H         142.6551  146.7891  158.2104 H       1  UNL1        0.1449
     20 C         141.6337  142.4588  165.3010 C.ar    1  UNL1        0.1222
     21 C         142.7702  141.8495  166.0672 C.ar    1  UNL1        0.0197
     22 C         142.6897  141.7306  167.5603 C.ar    1  UNL1       -0.0004
     23 C         141.4727  142.2211  168.2872 C.ar    1  UNL1        0.0099
     24 C         140.3362  142.8304  167.5210 C.ar    1  UNL1       -0.0004
     25 C         140.4167  142.9492  166.0279 C.ar    1  UNL1        0.0197
     26 C         141.3923  142.1022  169.7803 C.3     1  UNL1        0.1945
     27 C         141.3118  141.9834  171.2735 C.3     1  UNL1        0.0428
     28 O         142.6760  142.8672  169.9104 O.3     1  UNL1       -0.3751
     29 H         143.0017  143.1045  169.0281 H       1  UNL1        0.2110
     30 C         140.1086  141.3373  169.6503 C.3     1  UNL1        0.4230
     31 F         138.8249  140.5722  169.5202 F       1  UNL1       -0.1673
     32 F         140.5178  140.0495  168.9989 F       1  UNL1       -0.1673
     33 F         139.3666  142.4737  170.2891 F       1  UNL1       -0.1673
@<TRIPOS>BOND
     1     5     4    1
     2     5     6    1
     3     6     7    1
     4     7    11    1
     5    11    12    1
     6    12    15    1
     7    15    16   am
     8    15    17    2
     9    12    13    1
    10    13    14    1
    11     7     8    1
    12     8     9    1
    13     9    10    1
    14    10     1    1
    15     1     2    2
    16     1     3    2
    17     1    20    1
    18    20    21   ar
    19    21    22   ar
    20    22    23   ar
    21    23    26    1
    22    26    27    1
    23    26    28    1
    24    26    30    1
    25    30    31    1
    26    30    32    1
    27    30    33    1
    28    23    24   ar
    29    24    25   ar
    30    10     5    1
    31    25    20   ar
    32    14    12    1
    33    16    18    1
    34    16    19    1
    35    28    29    1
@<TRIPOS>MOLECULE
*****
 33 35 0 0 0
SMALL
GASTEIGER

@<TRIPOS>ATOM
      1 S         139.9127  142.3255  163.9437 S.O2    1  UNL1        0.0633
      2 O         138.5879  142.9662  164.2344 O.2     1  UNL1       -0.1528
      3 O         141.2374  141.6847  163.6531 O.2     1  UNL1       -0.1528
      4 C         140.9682  145.0487  163.2583 C.3     1  UNL1        0.0206
      5 C         140.3709  144.1845  162.1876 C.3     1  UNL1        0.0956
      6 C         140.3013  144.6819  160.7742 C.3     1  UNL1        0.0900
      7 N         139.7040  143.8177  159.7035 N.3     1  UNL1       -0.2698
      8 C         139.1763  142.4561  160.0462 C.3     1  UNL1        0.0915
      9 C         139.2458  141.9587  161.4596 C.3     1  UNL1        0.1131
     10 N         139.8431  142.8229  162.5303 N.3     1  UNL1       -0.1541
     11 C         139.6345  144.3152  158.2901 C.3     1  UNL1        0.0807
     12 C         140.8491  144.9143  157.6452 C.3     1  UNL1        0.0833
     13 C         141.7247  145.9036  156.9349 C.3     1  UNL1        0.0105
     14 C         140.2950  146.2457  157.2327 C.3     1  UNL1        0.0105
     15 C         141.8250  143.7909  157.8338 C.2     1  UNL1        0.2198
     16 N         141.5072  142.4243  157.3033 N.am    1  UNL1       -0.3288
     17 O         143.1188  144.0341  158.5530 O.2     1  UNL1       -0.2753
     18 H         140.6581  142.2647  156.8314 H       1  UNL1        0.1449
     19 H         142.1478  141.6870  157.4271 H       1  UNL1        0.1449
     20 C         139.9821  141.8280  165.3571 C.ar    1  UNL1        0.1222
     21 C         139.5597  140.4255  165.6803 C.ar    1  UNL1        0.0197
     22 C         139.6292  139.9281  167.0937 C.ar    1  UNL1       -0.0004
     23 C         140.1212  140.8332  168.1840 C.ar    1  UNL1        0.0099
     24 C         140.5436  142.2358  167.8609 C.ar    1  UNL1       -0.0004
     25 C         140.4741  142.7332  166.4475 C.ar    1  UNL1        0.0197
     26 C         140.1906  140.3358  169.5974 C.3     1  UNL1        0.1945
     27 C         140.2602  139.8384  171.0108 C.3     1  UNL1        0.0428
     28 O         138.7272  140.0095  169.5545 O.3     1  UNL1       -0.3751
     29 H         138.3694  140.2424  168.6835 H       1  UNL1        0.2110
     30 C         141.6541  140.6621  169.6403 C.3     1  UNL1        0.4230
     31 F         143.1176  140.9884  169.6831 F       1  UNL1       -0.1673
     32 F         142.2687  139.7023  168.6651 F       1  UNL1       -0.1673
     33 F         141.3856  141.7328  170.6560 F       1  UNL1       -0.1673
@<TRIPOS>BOND
     1     5     4    1
     2     5     6    1
     3     6     7    1
     4     7    11    1
     5    11    12    1
     6    12    15    1
     7    15    16   am
     8    15    17    2
     9    12    13    1
    10    13    14    1
    11     7     8    1
    12     8     9    1
    13     9    10    1
    14    10     1    1
    15     1     2    2
    16     1     3    2
    17     1    20    1
    18    20    21   ar
    19    21    22   ar
    20    22    23   ar
    21    23    26    1
    22    26    27    1
    23    26    28    1
    24    26    30    1
    25    30    31    1
    26    30    32    1
    27    30    33    1
    28    23    24   ar
    29    24    25   ar
    30    10     5    1
    31    25    20   ar
    32    14    12    1
    33    16    18    1
    34    16    19    1
    35    28    29    1
