@<TRIPOS>MOLECULE
*****
 35 39 0 0 0
SMALL
GASTEIGER

@<TRIPOS>ATOM
      1 O         141.3231  140.7884  162.8662 O.2     1  UNL1       -0.2522
      2 C         140.4653  139.6990  163.4383 C.2     1  UNL1        0.3081
      3 N         140.0215  138.5596  162.5696 N.am    1  UNL1       -0.2681
      4 N         140.0514  139.7490  164.8793 N.am    1  UNL1       -0.2576
      5 C         139.1936  138.6595  165.4514 C.3     1  UNL1        0.1018
      6 C         138.7797  138.7095  166.8923 C.3     1  UNL1        0.0671
      7 C         139.2236  139.8489  167.7611 C.ar    1  UNL1        0.0586
      8 N         138.8097  139.8989  169.2019 N.ar    1  UNL1       -0.2483
      9 C         139.2535  141.0383  170.0707 C.ar    1  UNL1        0.0984
     10 C         140.1113  142.1277  169.4985 C.ar    1  UNL1        0.0204
     11 C         140.5253  142.0777  168.0577 C.ar    1  UNL1        0.0004
     12 C         140.0814  140.9383  167.1890 C.ar    1  UNL1        0.0136
     13 C         140.4953  140.8884  165.7480 C.3     1  UNL1        0.1231
     14 H         139.4585  137.8446  162.9451 H       1  UNL1        0.1564
     15 C         141.3531  141.9778  165.1759 C.ar    1  UNL1        0.0000
     16 C         140.7164  143.1884  164.5601 C.ar    1  UNL1       -0.0015
     17 C         141.5742  144.2778  163.9879 C.ar    1  UNL1        0.0111
     18 C         143.0687  144.1566  164.0316 C.ar    1  UNL1        0.0577
     19 CL        143.9265  145.2461  163.4595 Cl      1  UNL1       -0.0822
     20 C         143.7053  142.9461  164.6474 C.ar    1  UNL1        0.0111
     21 C         142.8475  141.8567  165.2195 C.ar    1  UNL1       -0.0015
     22 C         140.4354  138.5096  161.1287 C.ar    1  UNL1        0.0518
     23 C         139.4307  138.7862  160.0498 C.ar    1  UNL1        0.0178
     24 C         139.8447  138.7362  158.6088 C.ar    1  UNL1        0.0388
     25 C         141.2633  138.4097  158.2470 C.ar    1  UNL1        0.1454
     26 C         142.2679  138.1332  159.3259 C.ar    1  UNL1        0.0388
     27 C         141.8540  138.1831  160.7668 C.ar    1  UNL1        0.0178
     28 O         141.6772  138.3598  156.8061 O.3     1  UNL1       -0.4535
     29 C         142.0479  137.0494  156.1772 C.ar    1  UNL1        0.1454
     30 C         143.4843  136.6203  156.1292 C.ar    1  UNL1        0.0398
     31 C         143.8550  135.3099  155.5003 C.ar    1  UNL1        0.0328
     32 C         142.7892  134.4286  154.9195 C.ar    1  UNL1        0.1403
     33 F         143.1599  133.1182  154.2906 F       1  UNL1       -0.2042
     34 C         141.3527  134.8577  154.9675 C.ar    1  UNL1        0.0328
     35 C         140.9820  136.1681  155.5964 C.ar    1  UNL1        0.0398
@<TRIPOS>BOND
     1     1     2    2
     2     2     3   am
     3     3    22    1
     4    22    23   ar
     5    23    24   ar
     6    24    25   ar
     7    25    28    1
     8    28    29    1
     9    29    30   ar
    10    30    31   ar
    11    31    32   ar
    12    32    33    1
    13    32    34   ar
    14    34    35   ar
    15    25    26   ar
    16    26    27   ar
    17     2     4   am
    18     4     5    1
    19     5     6    1
    20     6     7    1
    21     7     8   ar
    22     8     9   ar
    23     9    10   ar
    24    10    11   ar
    25    11    12   ar
    26    12    13    1
    27    13    15    1
    28    15    16   ar
    29    16    17   ar
    30    17    18   ar
    31    18    19    1
    32    18    20   ar
    33    20    21   ar
    34    27    22   ar
    35    13     4    1
    36    21    15   ar
    37    35    29   ar
    38    12     7   ar
    39     3    14    1
@<TRIPOS>MOLECULE
*****
 35 39 0 0 0
SMALL
GASTEIGER

@<TRIPOS>ATOM
      1 O         141.1827  140.7588  163.6347 O.2     1  UNL1       -0.2522
      2 C         142.0546  139.8621  164.4627 C.2     1  UNL1        0.3081
      3 N         142.9856  138.8949  163.7936 N.am    1  UNL1       -0.2681
      4 N         141.9956  139.9327  165.9599 N.am    1  UNL1       -0.2576
      5 C         142.8676  139.0360  166.7879 C.3     1  UNL1        0.1018
      6 C         142.8086  139.1065  168.2851 C.3     1  UNL1        0.0671
      7 C         141.8776  140.0738  168.9543 C.ar    1  UNL1        0.0586
      8 N         141.8187  140.1444  170.4514 N.ar    1  UNL1       -0.2483
      9 C         140.8877  141.1116  171.1206 C.ar    1  UNL1        0.0984
     10 C         140.0157  142.0082  170.2925 C.ar    1  UNL1        0.0204
     11 C         140.0747  141.9377  168.7954 C.ar    1  UNL1        0.0004
     12 C         141.0057  140.9705  168.1263 C.ar    1  UNL1        0.0136
     13 C         141.0647  140.8999  166.6290 C.3     1  UNL1        0.1231
     14 H         143.5579  138.3064  164.3370 H       1  UNL1        0.1564
     15 C         140.1927  141.7966  165.8010 C.ar    1  UNL1        0.0000
     16 C         140.6763  143.1622  165.4120 C.ar    1  UNL1       -0.0015
     17 C         139.8043  144.0589  164.5840 C.ar    1  UNL1        0.0111
     18 C         138.4487  143.5899  164.1450 C.ar    1  UNL1        0.0577
     19 CL        137.5768  144.4866  163.3169 Cl      1  UNL1       -0.0822
     20 C         137.9653  142.2243  164.5339 C.ar    1  UNL1        0.0111
     21 C         138.8372  141.3277  165.3620 C.ar    1  UNL1       -0.0015
     22 C         143.0446  138.8243  162.2964 C.ar    1  UNL1        0.0518
     23 C         144.0129  139.6868  161.5425 C.ar    1  UNL1        0.0178
     24 C         144.0718  139.6163  160.0453 C.ar    1  UNL1        0.0388
     25 C         143.1625  138.6832  159.3020 C.ar    1  UNL1        0.1454
     26 C         142.1942  137.8207  160.0560 C.ar    1  UNL1        0.0388
     27 C         142.1352  137.8912  161.5531 C.ar    1  UNL1        0.0178
     28 O         143.2214  138.6126  157.8049 O.3     1  UNL1       -0.4535
     29 C         142.6351  137.4340  157.0859 C.ar    1  UNL1        0.1454
     30 C         143.3335  136.1072  157.1267 C.ar    1  UNL1        0.0398
     31 C         142.7472  134.9285  156.4078 C.ar    1  UNL1        0.0328
     32 C         141.4624  135.0766  155.6479 C.ar    1  UNL1        0.1403
     33 F         140.8761  133.8980  154.9290 F       1  UNL1       -0.2042
     34 C         140.7639  136.4035  155.6071 C.ar    1  UNL1        0.0328
     35 C         141.3503  137.5822  156.3261 C.ar    1  UNL1        0.0398
@<TRIPOS>BOND
     1     1     2    2
     2     2     3   am
     3     3    22    1
     4    22    23   ar
     5    23    24   ar
     6    24    25   ar
     7    25    28    1
     8    28    29    1
     9    29    30   ar
    10    30    31   ar
    11    31    32   ar
    12    32    33    1
    13    32    34   ar
    14    34    35   ar
    15    25    26   ar
    16    26    27   ar
    17     2     4   am
    18     4     5    1
    19     5     6    1
    20     6     7    1
    21     7     8   ar
    22     8     9   ar
    23     9    10   ar
    24    10    11   ar
    25    11    12   ar
    26    12    13    1
    27    13    15    1
    28    15    16   ar
    29    16    17   ar
    30    17    18   ar
    31    18    19    1
    32    18    20   ar
    33    20    21   ar
    34    27    22   ar
    35    13     4    1
    36    21    15   ar
    37    35    29   ar
    38    12     7   ar
    39     3    14    1
@<TRIPOS>MOLECULE
*****
 35 39 0 0 0
SMALL
GASTEIGER

@<TRIPOS>ATOM
      1 O         141.1385  140.2104  163.3132 O.2     1  UNL1       -0.2522
      2 C         139.8611  139.8366  164.0051 C.2     1  UNL1        0.3081
      3 N         138.6555  139.4542  163.1988 N.am    1  UNL1       -0.2681
      4 N         139.7894  139.8453  165.5035 N.am    1  UNL1       -0.2576
      5 C         138.5121  139.4716  166.1954 C.3     1  UNL1        0.1018
      6 C         138.4404  139.4803  167.6936 C.3     1  UNL1        0.0671
      7 C         139.6460  139.8627  168.5000 C.ar    1  UNL1        0.0586
      8 N         139.5743  139.8714  169.9982 N.ar    1  UNL1       -0.2483
      9 C         140.7799  140.2539  170.8046 C.ar    1  UNL1        0.0984
     10 C         142.0572  140.6277  170.1126 C.ar    1  UNL1        0.0204
     11 C         142.1290  140.6190  168.6144 C.ar    1  UNL1        0.0004
     12 C         140.9234  140.2365  167.8081 C.ar    1  UNL1        0.0136
     13 C         140.9950  140.2278  166.3098 C.3     1  UNL1        0.1231
     14 H         137.8172  139.2089  163.6529 H       1  UNL1        0.1564
     15 C         142.2724  140.6016  165.6179 C.ar    1  UNL1        0.0000
     16 C         142.5606  142.0391  165.3006 C.ar    1  UNL1       -0.0015
     17 C         143.8379  142.4128  164.6087 C.ar    1  UNL1        0.0111
     18 C         144.8270  141.3491  164.2341 C.ar    1  UNL1        0.0577
     19 CL        146.1044  141.7229  163.5422 Cl      1  UNL1       -0.0822
     20 C         144.5388  139.9117  164.5514 C.ar    1  UNL1        0.0111
     21 C         143.2614  139.5379  165.2433 C.ar    1  UNL1       -0.0015
     22 C         138.7273  139.4455  161.7006 C.ar    1  UNL1        0.0518
     23 C         138.0343  140.5157  160.9103 C.ar    1  UNL1        0.0178
     24 C         138.1060  140.5069  159.4120 C.ar    1  UNL1        0.0388
     25 C         138.8707  139.4281  158.7041 C.ar    1  UNL1        0.1454
     26 C         139.5637  138.3579  159.4943 C.ar    1  UNL1        0.0388
     27 C         139.4920  138.3666  160.9926 C.ar    1  UNL1        0.0178
     28 O         138.9425  139.4194  157.2058 O.3     1  UNL1       -0.4535
     29 C         139.9315  138.5340  156.5074 C.ar    1  UNL1        0.1454
     30 C         141.3575  138.9744  156.3577 C.ar    1  UNL1        0.0398
     31 C         142.3466  138.0889  155.6593 C.ar    1  UNL1        0.0328
     32 C         141.9096  136.7631  155.1106 C.ar    1  UNL1        0.1403
     33 F         142.8987  135.8776  154.4122 F       1  UNL1       -0.2042
     34 C         140.4835  136.3226  155.2603 C.ar    1  UNL1        0.0328
     35 C         139.4945  137.2080  155.9587 C.ar    1  UNL1        0.0398
@<TRIPOS>BOND
     1     1     2    2
     2     2     3   am
     3     3    22    1
     4    22    23   ar
     5    23    24   ar
     6    24    25   ar
     7    25    28    1
     8    28    29    1
     9    29    30   ar
    10    30    31   ar
    11    31    32   ar
    12    32    33    1
    13    32    34   ar
    14    34    35   ar
    15    25    26   ar
    16    26    27   ar
    17     2     4   am
    18     4     5    1
    19     5     6    1
    20     6     7    1
    21     7     8   ar
    22     8     9   ar
    23     9    10   ar
    24    10    11   ar
    25    11    12   ar
    26    12    13    1
    27    13    15    1
    28    15    16   ar
    29    16    17   ar
    30    17    18   ar
    31    18    19    1
    32    18    20   ar
    33    20    21   ar
    34    27    22   ar
    35    13     4    1
    36    21    15   ar
    37    35    29   ar
    38    12     7   ar
    39     3    14    1
@<TRIPOS>MOLECULE
*****
 35 39 0 0 0
SMALL
GASTEIGER

@<TRIPOS>ATOM
      1 O         141.2511  140.3618  163.4895 O.2     1  UNL1       -0.2522
      2 C         140.0189  140.0067  164.2677 C.2     1  UNL1        0.3081
      3 N         138.7496  139.6625  163.5464 N.am    1  UNL1       -0.2681
      4 N         140.0561  139.9958  165.7672 N.am    1  UNL1       -0.2576
      5 C         138.8239  139.6407  166.5454 C.3     1  UNL1        0.1018
      6 C         138.8610  139.6297  168.0449 C.3     1  UNL1        0.0671
      7 C         140.1304  139.9740  168.7662 C.ar    1  UNL1        0.0586
      8 N         140.1675  139.9630  170.2657 N.ar    1  UNL1       -0.2483
      9 C         141.4368  140.3073  170.9870 C.ar    1  UNL1        0.0984
     10 C         142.6690  140.6624  170.2088 C.ar    1  UNL1        0.0204
     11 C         142.6319  140.6733  168.7093 C.ar    1  UNL1        0.0004
     12 C         141.3626  140.3291  167.9880 C.ar    1  UNL1        0.0136
     13 C         141.3254  140.3400  166.4885 C.3     1  UNL1        0.1231
     14 H         137.9409  139.4294  164.0571 H       1  UNL1        0.1564
     15 C         142.5576  140.6951  165.7103 C.ar    1  UNL1        0.0000
     16 C         142.8528  142.1298  165.3867 C.ar    1  UNL1       -0.0015
     17 C         144.0850  142.4849  164.6085 C.ar    1  UNL1        0.0111
     18 C         145.0220  141.4054  164.1539 C.ar    1  UNL1        0.0577
     19 CL        146.2542  141.7605  163.3757 Cl      1  UNL1       -0.0822
     20 C         144.7268  139.9708  164.4775 C.ar    1  UNL1        0.0111
     21 C         143.4946  139.6157  165.2557 C.ar    1  UNL1       -0.0015
     22 C         138.7125  139.6734  162.0469 C.ar    1  UNL1        0.0518
     23 C         137.9682  140.7560  161.3229 C.ar    1  UNL1        0.0178
     24 C         137.9312  140.7669  159.8234 C.ar    1  UNL1        0.0388
     25 C         138.6382  139.6952  159.0479 C.ar    1  UNL1        0.1454
     26 C         139.3825  138.6126  159.7718 C.ar    1  UNL1        0.0388
     27 C         139.4196  138.6017  161.2713 C.ar    1  UNL1        0.0178
     28 O         138.6011  139.7061  157.5484 O.3     1  UNL1       -0.4535
     29 C         138.1651  140.9415  156.8179 C.ar    1  UNL1        0.1454
     30 C         139.1373  142.0609  156.5907 C.ar    1  UNL1        0.0398
     31 C         138.7013  143.2964  155.8602 C.ar    1  UNL1        0.0328
     32 C         137.2931  143.4124  155.3570 C.ar    1  UNL1        0.1403
     33 F         136.8570  144.6478  154.6265 F       1  UNL1       -0.2042
     34 C         136.3207  142.2930  155.5842 C.ar    1  UNL1        0.0328
     35 C         136.7568  141.0575  156.3147 C.ar    1  UNL1        0.0398
@<TRIPOS>BOND
     1     1     2    2
     2     2     3   am
     3     3    22    1
     4    22    23   ar
     5    23    24   ar
     6    24    25   ar
     7    25    28    1
     8    28    29    1
     9    29    30   ar
    10    30    31   ar
    11    31    32   ar
    12    32    33    1
    13    32    34   ar
    14    34    35   ar
    15    25    26   ar
    16    26    27   ar
    17     2     4   am
    18     4     5    1
    19     5     6    1
    20     6     7    1
    21     7     8   ar
    22     8     9   ar
    23     9    10   ar
    24    10    11   ar
    25    11    12   ar
    26    12    13    1
    27    13    15    1
    28    15    16   ar
    29    16    17   ar
    30    17    18   ar
    31    18    19    1
    32    18    20   ar
    33    20    21   ar
    34    27    22   ar
    35    13     4    1
    36    21    15   ar
    37    35    29   ar
    38    12     7   ar
    39     3    14    1
@<TRIPOS>MOLECULE
*****
 35 39 0 0 0
SMALL
GASTEIGER

@<TRIPOS>ATOM
      1 O         140.4151  141.1871  162.8777 O.2     1  UNL1       -0.2522
      2 C         139.5115  140.1507  163.4773 C.2     1  UNL1        0.3081
      3 N         138.7662  139.2005  162.5877 N.am    1  UNL1       -0.2681
      4 N         139.3534  140.0646  164.9665 N.am    1  UNL1       -0.2576
      5 C         138.4498  139.0281  165.5660 C.3     1  UNL1        0.1018
      6 C         138.2917  138.9420  167.0551 C.3     1  UNL1        0.0671
      7 C         139.0371  139.8922  167.9448 C.ar    1  UNL1        0.0586
      8 N         138.8789  139.8061  169.4339 N.ar    1  UNL1       -0.2483
      9 C         139.6243  140.7563  170.3235 C.ar    1  UNL1        0.0984
     10 C         140.5278  141.7927  169.7239 C.ar    1  UNL1        0.0204
     11 C         140.6860  141.8789  168.2348 C.ar    1  UNL1        0.0004
     12 C         139.9406  140.9287  167.3453 C.ar    1  UNL1        0.0136
     13 C         140.0988  141.0148  165.8560 C.3     1  UNL1        0.1231
     14 H         138.1731  138.5202  162.9812 H       1  UNL1        0.1564
     15 C         141.0023  142.0512  165.2565 C.ar    1  UNL1        0.0000
     16 C         140.4484  143.3849  164.8509 C.ar    1  UNL1       -0.0015
     17 C         141.3520  144.4213  164.2513 C.ar    1  UNL1        0.0111
     18 C         142.8094  144.1240  164.0575 C.ar    1  UNL1        0.0577
     19 CL        143.7130  145.1604  163.4579 Cl      1  UNL1       -0.0822
     20 C         143.3633  142.7904  164.4631 C.ar    1  UNL1        0.0111
     21 C         142.4597  141.7540  165.0626 C.ar    1  UNL1       -0.0015
     22 C         138.9243  139.2866  161.0986 C.ar    1  UNL1        0.0518
     23 C         138.0750  140.2372  160.3079 C.ar    1  UNL1        0.0178
     24 C         138.2333  140.3233  158.8187 C.ar    1  UNL1        0.0388
     25 C         139.2407  139.4590  158.1203 C.ar    1  UNL1        0.1454
     26 C         140.0900  138.5084  158.9109 C.ar    1  UNL1        0.0388
     27 C         139.9319  138.4223  160.4001 C.ar    1  UNL1        0.0178
     28 O         139.3989  139.5451  156.6311 O.3     1  UNL1       -0.4535
     29 C         140.2245  138.5252  155.9043 C.ar    1  UNL1        0.1454
     30 C         139.6115  137.2198  155.4920 C.ar    1  UNL1        0.0398
     31 C         140.4371  136.1999  154.7652 C.ar    1  UNL1        0.0328
     32 C         141.8756  136.4855  154.4507 C.ar    1  UNL1        0.1403
     33 F         142.7012  135.4656  153.7239 F       1  UNL1       -0.2042
     34 C         142.4887  137.7910  154.8630 C.ar    1  UNL1        0.0328
     35 C         141.6631  138.8108  155.5898 C.ar    1  UNL1        0.0398
@<TRIPOS>BOND
     1     1     2    2
     2     2     3   am
     3     3    22    1
     4    22    23   ar
     5    23    24   ar
     6    24    25   ar
     7    25    28    1
     8    28    29    1
     9    29    30   ar
    10    30    31   ar
    11    31    32   ar
    12    32    33    1
    13    32    34   ar
    14    34    35   ar
    15    25    26   ar
    16    26    27   ar
    17     2     4   am
    18     4     5    1
    19     5     6    1
    20     6     7    1
    21     7     8   ar
    22     8     9   ar
    23     9    10   ar
    24    10    11   ar
    25    11    12   ar
    26    12    13    1
    27    13    15    1
    28    15    16   ar
    29    16    17   ar
    30    17    18   ar
    31    18    19    1
    32    18    20   ar
    33    20    21   ar
    34    27    22   ar
    35    13     4    1
    36    21    15   ar
    37    35    29   ar
    38    12     7   ar
    39     3    14    1
@<TRIPOS>MOLECULE
*****
 35 39 0 0 0
SMALL
GASTEIGER

@<TRIPOS>ATOM
      1 O         140.4131  141.2674  162.5432 O.2     1  UNL1       -0.2522
      2 C         139.4871  140.2116  163.0702 C.2     1  UNL1        0.3081
      3 N         138.7503  139.3170  162.1180 N.am    1  UNL1       -0.2681
      4 N         139.2980  140.0504  164.5495 N.am    1  UNL1       -0.2576
      5 C         138.3720  138.9946  165.0766 C.3     1  UNL1        0.1018
      6 C         138.1828  138.8334  166.5558 C.3     1  UNL1        0.0671
      7 C         138.9196  139.7280  167.5081 C.ar    1  UNL1        0.0586
      8 N         138.7305  139.5668  168.9873 N.ar    1  UNL1       -0.2483
      9 C         139.4673  140.4614  169.9395 C.ar    1  UNL1        0.0984
     10 C         140.3933  141.5172  169.4125 C.ar    1  UNL1        0.0204
     11 C         140.5825  141.6784  167.9332 C.ar    1  UNL1        0.0004
     12 C         139.8457  140.7838  166.9811 C.ar    1  UNL1        0.0136
     13 C         140.0348  140.9450  165.5017 C.3     1  UNL1        0.1231
     14 H         138.1425  138.6240  162.4640 H       1  UNL1        0.1564
     15 C         140.9608  142.0008  164.9747 C.ar    1  UNL1        0.0000
     16 C         142.4090  141.6827  164.7473 C.ar    1  UNL1       -0.0015
     17 C         143.3350  142.7385  164.2202 C.ar    1  UNL1        0.0111
     18 C         142.8128  144.1124  163.9206 C.ar    1  UNL1        0.0577
     19 CL        143.7388  145.1682  163.3935 Cl      1  UNL1       -0.0822
     20 C         141.3647  144.4305  164.1480 C.ar    1  UNL1        0.0111
     21 C         140.4387  143.3747  164.6750 C.ar    1  UNL1       -0.0015
     22 C         138.9394  139.4782  160.6388 C.ar    1  UNL1        0.0518
     23 C         138.1085  140.4701  159.8801 C.ar    1  UNL1        0.0178
     24 C         138.2977  140.6312  158.4008 C.ar    1  UNL1        0.0388
     25 C         139.3178  139.8005  157.6803 C.ar    1  UNL1        0.1454
     26 C         140.1488  138.8087  158.4390 C.ar    1  UNL1        0.0388
     27 C         139.9596  138.6475  159.9182 C.ar    1  UNL1        0.0178
     28 O         139.5070  139.9617  156.2010 O.3     1  UNL1       -0.4535
     29 C         138.7315  139.1018  155.2476 C.ar    1  UNL1        0.1454
     30 C         139.3857  137.9135  154.6074 C.ar    1  UNL1        0.0398
     31 C         138.6102  137.0535  153.6539 C.ar    1  UNL1        0.0328
     32 C         137.1805  137.3818  153.3408 C.ar    1  UNL1        0.1403
     33 F         136.4050  136.5218  152.3873 F       1  UNL1       -0.2042
     34 C         136.5262  138.5701  153.9810 C.ar    1  UNL1        0.0328
     35 C         137.3017  139.4301  154.9344 C.ar    1  UNL1        0.0398
@<TRIPOS>BOND
     1     1     2    2
     2     2     3   am
     3     3    22    1
     4    22    23   ar
     5    23    24   ar
     6    24    25   ar
     7    25    28    1
     8    28    29    1
     9    29    30   ar
    10    30    31   ar
    11    31    32   ar
    12    32    33    1
    13    32    34   ar
    14    34    35   ar
    15    25    26   ar
    16    26    27   ar
    17     2     4   am
    18     4     5    1
    19     5     6    1
    20     6     7    1
    21     7     8   ar
    22     8     9   ar
    23     9    10   ar
    24    10    11   ar
    25    11    12   ar
    26    12    13    1
    27    13    15    1
    28    15    16   ar
    29    16    17   ar
    30    17    18   ar
    31    18    19    1
    32    18    20   ar
    33    20    21   ar
    34    27    22   ar
    35    13     4    1
    36    21    15   ar
    37    35    29   ar
    38    12     7   ar
    39     3    14    1
@<TRIPOS>MOLECULE
*****
 35 39 0 0 0
SMALL
GASTEIGER

@<TRIPOS>ATOM
      1 O         141.2382  140.8337  163.6805 O.2     1  UNL1       -0.2522
      2 C         142.1209  139.9516  164.5129 C.2     1  UNL1        0.3081
      3 N         143.0945  139.0239  163.8487 N.am    1  UNL1       -0.2681
      4 N         142.0298  139.9973  166.0095 N.am    1  UNL1       -0.2576
      5 C         142.9124  139.1152  166.8418 C.3     1  UNL1        0.1018
      6 C         142.8214  139.1609  168.3383 C.3     1  UNL1        0.0671
      7 C         141.8477  140.0887  169.0026 C.ar    1  UNL1        0.0586
      8 N         141.7567  140.1343  170.4991 N.ar    1  UNL1       -0.2483
      9 C         140.7830  141.0621  171.1632 C.ar    1  UNL1        0.0984
     10 C         139.9003  141.9442  170.3309 C.ar    1  UNL1        0.0204
     11 C         139.9914  141.8986  168.8344 C.ar    1  UNL1        0.0004
     12 C         140.9651  140.9708  168.1702 C.ar    1  UNL1        0.0136
     13 C         141.0561  140.9251  166.6736 C.3     1  UNL1        0.1231
     14 H         143.6739  138.4449  164.3950 H       1  UNL1        0.1564
     15 C         140.1735  141.8072  165.8413 C.ar    1  UNL1        0.0000
     16 C         140.6194  143.1951  165.4877 C.ar    1  UNL1       -0.0015
     17 C         139.7367  144.0772  164.6554 C.ar    1  UNL1        0.0111
     18 C         138.4082  143.5714  164.1766 C.ar    1  UNL1        0.0577
     19 CL        137.5255  144.4535  163.3442 Cl      1  UNL1       -0.0822
     20 C         137.9623  142.1836  164.5301 C.ar    1  UNL1        0.0111
     21 C         138.8450  141.3015  165.3625 C.ar    1  UNL1       -0.0015
     22 C         143.1856  138.9782  162.3522 C.ar    1  UNL1        0.0518
     23 C         143.9617  140.0294  161.6156 C.ar    1  UNL1        0.0178
     24 C         144.0527  139.9837  160.1190 C.ar    1  UNL1        0.0388
     25 C         143.3676  138.8868  159.3591 C.ar    1  UNL1        0.1454
     26 C         142.5915  137.8356  160.0957 C.ar    1  UNL1        0.0388
     27 C         142.5005  137.8813  161.5923 C.ar    1  UNL1        0.0178
     28 O         143.4586  138.8412  157.8626 O.3     1  UNL1       -0.4535
     29 C         143.6031  140.1132  157.0808 C.ar    1  UNL1        0.1454
     30 C         142.3846  140.8962  156.6908 C.ar    1  UNL1        0.0398
     31 C         142.5290  142.1682  155.9090 C.ar    1  UNL1        0.0328
     32 C         143.8919  142.6571  155.5173 C.ar    1  UNL1        0.1403
     33 F         144.0363  143.9291  154.7355 F       1  UNL1       -0.2042
     34 C         145.1104  141.8741  155.9074 C.ar    1  UNL1        0.0328
     35 C         144.9660  140.6021  156.6892 C.ar    1  UNL1        0.0398
@<TRIPOS>BOND
     1     1     2    2
     2     2     3   am
     3     3    22    1
     4    22    23   ar
     5    23    24   ar
     6    24    25   ar
     7    25    28    1
     8    28    29    1
     9    29    30   ar
    10    30    31   ar
    11    31    32   ar
    12    32    33    1
    13    32    34   ar
    14    34    35   ar
    15    25    26   ar
    16    26    27   ar
    17     2     4   am
    18     4     5    1
    19     5     6    1
    20     6     7    1
    21     7     8   ar
    22     8     9   ar
    23     9    10   ar
    24    10    11   ar
    25    11    12   ar
    26    12    13    1
    27    13    15    1
    28    15    16   ar
    29    16    17   ar
    30    17    18   ar
    31    18    19    1
    32    18    20   ar
    33    20    21   ar
    34    27    22   ar
    35    13     4    1
    36    21    15   ar
    37    35    29   ar
    38    12     7   ar
    39     3    14    1
@<TRIPOS>MOLECULE
*****
 35 39 0 0 0
SMALL
GASTEIGER

@<TRIPOS>ATOM
      1 O         141.3616  140.8138  162.9092 O.2     1  UNL1       -0.2522
      2 C         140.5046  139.7202  163.4745 C.2     1  UNL1        0.3081
      3 N         140.0713  138.5800  162.6016 N.am    1  UNL1       -0.2681
      4 N         140.0810  139.7669  164.9127 N.am    1  UNL1       -0.2576
      5 C         139.2240  138.6732  165.4780 C.3     1  UNL1        0.1018
      6 C         138.8003  138.7198  166.9161 C.3     1  UNL1        0.0671
      7 C         139.2337  139.8601  167.7891 C.ar    1  UNL1        0.0586
      8 N         138.8100  139.9067  169.2272 N.ar    1  UNL1       -0.2483
      9 C         139.2434  141.0470  170.1001 C.ar    1  UNL1        0.0984
     10 C         140.1004  142.1406  169.5349 C.ar    1  UNL1        0.0204
     11 C         140.5241  142.0940  168.0967 C.ar    1  UNL1        0.0004
     12 C         140.0907  140.9538  167.2238 C.ar    1  UNL1        0.0136
     13 C         140.5144  140.9071  165.7856 C.3     1  UNL1        0.1231
     14 H         139.5088  137.8622  162.9726 H       1  UNL1        0.1564
     15 C         141.3714  142.0007  165.2204 C.ar    1  UNL1        0.0000
     16 C         140.7338  143.2148  164.6124 C.ar    1  UNL1       -0.0015
     17 C         141.5908  144.3084  164.0471 C.ar    1  UNL1        0.0111
     18 C         143.0854  144.1880  164.0899 C.ar    1  UNL1        0.0577
     19 CL        143.9424  145.2816  163.5246 Cl      1  UNL1       -0.0822
     20 C         143.7229  142.9739  164.6978 C.ar    1  UNL1        0.0111
     21 C         142.8659  141.8803  165.2631 C.ar    1  UNL1       -0.0015
     22 C         140.4949  138.5334  161.1634 C.ar    1  UNL1        0.0518
     23 C         141.8858  138.1012  160.8049 C.ar    1  UNL1        0.0178
     24 C         142.3094  138.0546  159.3667 C.ar    1  UNL1        0.0388
     25 C         141.3422  138.4402  158.2871 C.ar    1  UNL1        0.1454
     26 C         139.9512  138.8724  158.6456 C.ar    1  UNL1        0.0388
     27 C         139.5276  138.9190  160.0837 C.ar    1  UNL1        0.0178
     28 O         141.7658  138.3936  156.8489 O.3     1  UNL1       -0.4535
     29 C         143.0508  139.0404  156.4242 C.ar    1  UNL1        0.1454
     30 C         143.9188  138.3794  155.3949 C.ar    1  UNL1        0.0398
     31 C         145.2039  139.0262  154.9702 C.ar    1  UNL1        0.0328
     32 C         145.6209  140.3340  155.5749 C.ar    1  UNL1        0.1403
     33 F         146.9059  140.9808  155.1502 F       1  UNL1       -0.2042
     34 C         144.7529  140.9950  156.6043 C.ar    1  UNL1        0.0328
     35 C         143.4679  140.3482  157.0290 C.ar    1  UNL1        0.0398
@<TRIPOS>BOND
     1     1     2    2
     2     2     3   am
     3     3    22    1
     4    22    23   ar
     5    23    24   ar
     6    24    25   ar
     7    25    28    1
     8    28    29    1
     9    29    30   ar
    10    30    31   ar
    11    31    32   ar
    12    32    33    1
    13    32    34   ar
    14    34    35   ar
    15    25    26   ar
    16    26    27   ar
    17     2     4   am
    18     4     5    1
    19     5     6    1
    20     6     7    1
    21     7     8   ar
    22     8     9   ar
    23     9    10   ar
    24    10    11   ar
    25    11    12   ar
    26    12    13    1
    27    13    15    1
    28    15    16   ar
    29    16    17   ar
    30    17    18   ar
    31    18    19    1
    32    18    20   ar
    33    20    21   ar
    34    27    22   ar
    35    13     4    1
    36    21    15   ar
    37    35    29   ar
    38    12     7   ar
    39     3    14    1
@<TRIPOS>MOLECULE
*****
 35 39 0 0 0
SMALL
GASTEIGER

@<TRIPOS>ATOM
      1 O         141.7484  141.4393  162.7347 O.2     1  UNL1       -0.2522
      2 C         142.7981  140.4747  163.2013 C.2     1  UNL1        0.3081
      3 N         143.8194  139.9524  162.2348 N.am    1  UNL1       -0.2681
      4 N         142.8265  140.0325  164.6344 N.am    1  UNL1       -0.2576
      5 C         143.8761  139.0679  165.1010 C.3     1  UNL1        0.1018
      6 C         143.9046  138.6257  166.5340 C.3     1  UNL1        0.0671
      7 C         142.8832  139.1481  167.5005 C.ar    1  UNL1        0.0586
      8 N         142.9116  138.7058  168.9335 N.ar    1  UNL1       -0.2483
      9 C         141.8904  139.2282  169.9000 C.ar    1  UNL1        0.0984
     10 C         140.8407  140.1928  169.4334 C.ar    1  UNL1        0.0204
     11 C         140.8122  140.6350  168.0004 C.ar    1  UNL1        0.0004
     12 C         141.8335  140.1127  167.0339 C.ar    1  UNL1        0.0136
     13 C         141.8052  140.5549  165.6008 C.3     1  UNL1        0.1231
     14 H         144.5083  139.3193  162.5411 H       1  UNL1        0.1564
     15 C         140.7555  141.5195  165.1342 C.ar    1  UNL1        0.0000
     16 C         139.4414  141.0082  164.6224 C.ar    1  UNL1       -0.0015
     17 C         138.3917  141.9728  164.1558 C.ar    1  UNL1        0.0111
     18 C         138.6561  143.4487  164.2011 C.ar    1  UNL1        0.0577
     19 CL        137.6064  144.4133  163.7345 Cl      1  UNL1       -0.0822
     20 C         139.9701  143.9599  164.7130 C.ar    1  UNL1        0.0111
     21 C         141.0198  142.9953  165.1795 C.ar    1  UNL1       -0.0015
     22 C         143.7910  140.3946  160.8018 C.ar    1  UNL1        0.0518
     23 C         143.4341  139.4165  159.7220 C.ar    1  UNL1        0.0178
     24 C         143.4057  139.8588  158.2889 C.ar    1  UNL1        0.0388
     25 C         143.7341  141.2791  157.9357 C.ar    1  UNL1        0.1454
     26 C         144.0910  142.2572  159.0155 C.ar    1  UNL1        0.0388
     27 C         144.1194  141.8150  160.4486 C.ar    1  UNL1        0.0178
     28 O         143.7057  141.7213  156.5027 O.3     1  UNL1       -0.4535
     29 C         144.9719  142.1577  155.8272 C.ar    1  UNL1        0.1454
     30 C         146.2974  141.6670  156.3294 C.ar    1  UNL1        0.0398
     31 C         147.5636  142.1034  155.6539 C.ar    1  UNL1        0.0328
     32 C         147.5044  143.0305  154.4762 C.ar    1  UNL1        0.1403
     33 F         148.7706  143.4669  153.8007 F       1  UNL1       -0.2042
     34 C         146.1788  143.5213  153.9740 C.ar    1  UNL1        0.0328
     35 C         144.9126  143.0849  154.6495 C.ar    1  UNL1        0.0398
@<TRIPOS>BOND
     1     1     2    2
     2     2     3   am
     3     3    22    1
     4    22    23   ar
     5    23    24   ar
     6    24    25   ar
     7    25    28    1
     8    28    29    1
     9    29    30   ar
    10    30    31   ar
    11    31    32   ar
    12    32    33    1
    13    32    34   ar
    14    34    35   ar
    15    25    26   ar
    16    26    27   ar
    17     2     4   am
    18     4     5    1
    19     5     6    1
    20     6     7    1
    21     7     8   ar
    22     8     9   ar
    23     9    10   ar
    24    10    11   ar
    25    11    12   ar
    26    12    13    1
    27    13    15    1
    28    15    16   ar
    29    16    17   ar
    30    17    18   ar
    31    18    19    1
    32    18    20   ar
    33    20    21   ar
    34    27    22   ar
    35    13     4    1
    36    21    15   ar
    37    35    29   ar
    38    12     7   ar
    39     3    14    1
