@<TRIPOS>MOLECULE
*****
 29 32 0 0 0
SMALL
GASTEIGER

@<TRIPOS>ATOM
      1 O         142.6206  139.7162  165.7294 O.2     1  UNL1       -0.2665
      2 C         142.1432  139.6798  167.1509 C.ar    1  UNL1        0.2679
      3 C         142.9980  139.0550  168.2134 C.ar    1  UNL1        0.0980
      4 C         142.5206  139.0186  169.6349 C.ar    1  UNL1        0.1453
      5 C         141.1884  139.6069  169.9940 C.ar    1  UNL1        0.0561
      6 C         140.3335  140.2316  168.9315 C.ar    1  UNL1        0.0860
      7 N         140.8109  140.2681  167.5100 N.ar    1  UNL1       -0.2729
      8 C         139.9560  140.8929  166.4475 C.ar    1  UNL1        0.0671
      9 C         140.1672  142.3271  166.0622 C.ar    1  UNL1        0.0207
     10 C         139.3123  142.9519  164.9997 C.ar    1  UNL1        0.0384
     11 C         138.2462  142.1425  164.3226 C.ar    1  UNL1        0.1387
     12 C         138.0351  140.7083  164.7079 C.ar    1  UNL1        0.0384
     13 C         138.8900  140.0835  165.7704 C.ar    1  UNL1        0.0207
     14 O         137.3914  142.7673  163.2601 O.3     1  UNL1       -0.4740
     15 C         137.9984  143.1671  161.9480 C.3     1  UNL1        0.2226
     16 C         138.1266  142.1606  160.8433 C.3     1  UNL1        0.1200
     17 N         138.5721  140.7618  161.1511 N.3     1  UNL1       -0.2696
     18 C         137.7125  139.5332  161.1082 C.3     1  UNL1        0.0722
     19 C         138.5645  138.3580  161.4865 C.3     1  UNL1        0.0188
     20 C         139.9506  138.8602  161.7631 C.3     1  UNL1        0.0188
     21 C         139.9553  140.3458  161.5558 C.3     1  UNL1        0.0722
     22 O         143.3755  138.3938  170.6974 O.3     1  UNL1       -0.4704
     23 C         143.7967  136.9594  170.5739 C.3     1  UNL1        0.2320
     24 C         144.7262  136.3607  171.5876 C.ar    1  UNL1        0.0212
     25 C         144.7167  134.8808  171.8320 C.ar    1  UNL1       -0.0007
     26 C         145.6463  134.2821  172.8457 C.ar    1  UNL1       -0.0002
     27 C         146.5852  135.1633  173.6150 C.ar    1  UNL1       -0.0000
     28 C         146.5947  136.6433  173.3706 C.ar    1  UNL1       -0.0002
     29 C         145.6652  137.2420  172.3569 C.ar    1  UNL1       -0.0007
@<TRIPOS>BOND
     1     1     2    2
     2     2     3   ar
     3     3     4   ar
     4     4    22    1
     5    22    23    1
     6    23    24    1
     7    24    25   ar
     8    25    26   ar
     9    26    27   ar
    10    27    28   ar
    11    28    29   ar
    12     4     5   ar
    13     5     6   ar
    14     6     7   ar
    15     7     8    1
    16     8     9   ar
    17     9    10   ar
    18    10    11   ar
    19    11    14    1
    20    14    15    1
    21    15    16    1
    22    16    17    1
    23    17    18    1
    24    18    19    1
    25    19    20    1
    26    20    21    1
    27    11    12   ar
    28    12    13   ar
    29     7     2   ar
    30    13     8   ar
    31    29    24   ar
    32    21    17    1
@<TRIPOS>MOLECULE
*****
 29 32 0 0 0
SMALL
GASTEIGER

@<TRIPOS>ATOM
      1 O         142.9170  137.9028  161.9139 O.2     1  UNL1       -0.2665
      2 C         142.1377  138.0559  160.6414 C.ar    1  UNL1        0.2679
      3 C         142.7945  137.7785  159.3217 C.ar    1  UNL1        0.0980
      4 C         142.0152  137.9317  158.0492 C.ar    1  UNL1        0.1453
      5 C         140.5792  138.3623  158.0963 C.ar    1  UNL1        0.0561
      6 C         139.9224  138.6397  159.4160 C.ar    1  UNL1        0.0860
      7 N         140.7017  138.4866  160.6885 N.ar    1  UNL1       -0.2729
      8 C         140.0448  138.7640  162.0083 C.ar    1  UNL1        0.0671
      9 C         139.5069  137.6311  162.8312 C.ar    1  UNL1        0.0207
     10 C         138.8501  137.9085  164.1508 C.ar    1  UNL1        0.0384
     11 C         138.7311  139.3188  164.6477 C.ar    1  UNL1        0.1387
     12 C         139.2689  140.4518  163.8248 C.ar    1  UNL1        0.0384
     13 C         139.9258  140.1743  162.5050 C.ar    1  UNL1        0.0207
     14 O         138.0742  139.5962  165.9673 O.3     1  UNL1       -0.4740
     15 C         138.8296  139.3700  167.2434 C.3     1  UNL1        0.2226
     16 C         140.1119  140.1059  167.4964 C.3     1  UNL1        0.1200
     17 N         140.1361  141.2653  168.4478 N.3     1  UNL1       -0.2696
     18 C         140.5997  142.6563  168.1310 C.3     1  UNL1        0.0722
     19 C         140.4511  143.4879  169.3706 C.3     1  UNL1        0.0188
     20 C         139.8958  142.6109  170.4534 C.3     1  UNL1        0.0188
     21 C         139.7011  141.2372  169.8831 C.3     1  UNL1        0.0722
     22 O         142.6721  137.6543  156.7294 O.3     1  UNL1       -0.4704
     23 C         142.0787  136.6427  155.7943 C.3     1  UNL1        0.2320
     24 C         142.2909  135.1784  156.0406 C.ar    1  UNL1        0.0212
     25 C         143.3042  134.7268  157.0503 C.ar    1  UNL1       -0.0007
     26 C         143.5164  133.2624  157.2966 C.ar    1  UNL1       -0.0002
     27 C         142.7154  132.2497  156.5332 C.ar    1  UNL1       -0.0000
     28 C         141.7022  132.7012  155.5236 C.ar    1  UNL1       -0.0002
     29 C         141.4899  134.1655  155.2773 C.ar    1  UNL1       -0.0007
@<TRIPOS>BOND
     1     1     2    2
     2     2     3   ar
     3     3     4   ar
     4     4    22    1
     5    22    23    1
     6    23    24    1
     7    24    25   ar
     8    25    26   ar
     9    26    27   ar
    10    27    28   ar
    11    28    29   ar
    12     4     5   ar
    13     5     6   ar
    14     6     7   ar
    15     7     8    1
    16     8     9   ar
    17     9    10   ar
    18    10    11   ar
    19    11    14    1
    20    14    15    1
    21    15    16    1
    22    16    17    1
    23    17    18    1
    24    18    19    1
    25    19    20    1
    26    20    21    1
    27    11    12   ar
    28    12    13   ar
    29     7     2   ar
    30    13     8   ar
    31    29    24   ar
    32    21    17    1
@<TRIPOS>MOLECULE
*****
 29 32 0 0 0
SMALL
GASTEIGER

@<TRIPOS>ATOM
      1 O         142.4641  139.0354  160.2063 O.2     1  UNL1       -0.2665
      2 C         141.8267  138.4243  158.9937 C.ar    1  UNL1        0.2679
      3 C         142.6602  137.6440  158.0210 C.ar    1  UNL1        0.0980
      4 C         142.0228  137.0330  156.8084 C.ar    1  UNL1        0.1453
      5 C         140.5519  137.2022  156.5686 C.ar    1  UNL1        0.0561
      6 C         139.7183  137.9825  157.5413 C.ar    1  UNL1        0.0860
      7 N         140.3557  138.5936  158.7539 N.ar    1  UNL1       -0.2729
      8 C         139.5221  139.3739  159.7267 C.ar    1  UNL1        0.0671
      9 C         138.7757  138.6613  160.8152 C.ar    1  UNL1        0.0207
     10 C         137.9421  139.4415  161.7880 C.ar    1  UNL1        0.0384
     11 C         137.8549  140.9345  161.6722 C.ar    1  UNL1        0.1387
     12 C         138.6013  141.6472  160.5836 C.ar    1  UNL1        0.0384
     13 C         139.4349  140.8669  159.6108 C.ar    1  UNL1        0.0207
     14 O         137.0213  141.7148  162.6449 O.3     1  UNL1       -0.4740
     15 C         137.6768  142.4331  163.7870 C.3     1  UNL1        0.2226
     16 C         138.9697  141.9229  164.3508 C.3     1  UNL1        0.1200
     17 N         138.9579  140.9429  165.4864 N.3     1  UNL1       -0.2696
     18 C         139.7550  141.0510  166.7526 C.3     1  UNL1        0.0722
     19 C         139.4366  139.8577  167.6039 C.3     1  UNL1        0.0188
     20 C         138.4429  139.0122  166.8640 C.3     1  UNL1        0.0188
     21 C         138.1470  139.6829  165.5553 C.3     1  UNL1        0.0722
     22 O         142.8565  136.2526  155.8357 O.3     1  UNL1       -0.4704
     23 C         142.5263  134.8181  155.5470 C.3     1  UNL1        0.2320
     24 C         143.4011  133.7245  156.0842 C.ar    1  UNL1        0.0212
     25 C         143.9753  133.8337  157.4656 C.ar    1  UNL1       -0.0007
     26 C         144.8501  132.7399  158.0028 C.ar    1  UNL1       -0.0002
     27 C         145.1506  131.5370  157.1586 C.ar    1  UNL1       -0.0000
     28 C         144.5764  131.4278  155.7771 C.ar    1  UNL1       -0.0002
     29 C         143.7016  132.5215  155.2399 C.ar    1  UNL1       -0.0007
@<TRIPOS>BOND
     1     1     2    2
     2     2     3   ar
     3     3     4   ar
     4     4    22    1
     5    22    23    1
     6    23    24    1
     7    24    25   ar
     8    25    26   ar
     9    26    27   ar
    10    27    28   ar
    11    28    29   ar
    12     4     5   ar
    13     5     6   ar
    14     6     7   ar
    15     7     8    1
    16     8     9   ar
    17     9    10   ar
    18    10    11   ar
    19    11    14    1
    20    14    15    1
    21    15    16    1
    22    16    17    1
    23    17    18    1
    24    18    19    1
    25    19    20    1
    26    20    21    1
    27    11    12   ar
    28    12    13   ar
    29     7     2   ar
    30    13     8   ar
    31    29    24   ar
    32    21    17    1
@<TRIPOS>MOLECULE
*****
 29 32 0 0 0
SMALL
GASTEIGER

@<TRIPOS>ATOM
      1 O         137.7253  143.9133  162.5369 O.2     1  UNL1       -0.2665
      2 C         139.0272  143.5736  163.1999 C.ar    1  UNL1        0.2679
      3 C         139.0617  143.2529  164.6648 C.ar    1  UNL1        0.0980
      4 C         140.3636  142.9131  165.3278 C.ar    1  UNL1        0.1453
      5 C         141.6311  142.8940  164.5259 C.ar    1  UNL1        0.0561
      6 C         141.5967  143.2148  163.0611 C.ar    1  UNL1        0.0860
      7 N         140.2947  143.5545  162.3981 N.ar    1  UNL1       -0.2729
      8 C         140.2604  143.8752  160.9331 C.ar    1  UNL1        0.0671
      9 C         140.7169  145.2195  160.4487 C.ar    1  UNL1        0.0207
     10 C         140.6826  145.5402  158.9839 C.ar    1  UNL1        0.0384
     11 C         140.1917  144.5167  158.0033 C.ar    1  UNL1        0.1387
     12 C         139.7351  143.1725  158.4876 C.ar    1  UNL1        0.0384
     13 C         139.7695  142.8518  159.9526 C.ar    1  UNL1        0.0207
     14 O         140.1573  144.8375  156.5384 O.3     1  UNL1       -0.4740
     15 C         139.1037  145.7574  155.9965 C.3     1  UNL1        0.2226
     16 C         139.4710  146.8098  154.9928 C.3     1  UNL1        0.1200
     17 N         139.1948  148.2547  155.2859 N.3     1  UNL1       -0.2696
     18 C         138.4823  148.7890  156.4930 C.3     1  UNL1        0.0722
     19 C         138.4297  150.2835  156.3765 C.3     1  UNL1        0.0188
     20 C         139.1097  150.6730  155.0974 C.3     1  UNL1        0.0188
     21 C         139.5825  149.4191  154.4234 C.3     1  UNL1        0.0722
     22 O         140.3979  142.5924  166.7928 O.3     1  UNL1       -0.4704
     23 C         140.7322  141.2030  167.2487 C.3     1  UNL1        0.2320
     24 C         140.1086  140.0202  166.5690 C.ar    1  UNL1        0.0212
     25 C         138.7366  139.5633  166.9676 C.ar    1  UNL1       -0.0007
     26 C         138.1130  138.3805  166.2878 C.ar    1  UNL1       -0.0002
     27 C         138.8614  137.6545  165.2095 C.ar    1  UNL1       -0.0000
     28 C         140.2334  138.1114  164.8108 C.ar    1  UNL1       -0.0002
     29 C         140.8570  139.2942  165.4905 C.ar    1  UNL1       -0.0007
@<TRIPOS>BOND
     1     1     2    2
     2     2     3   ar
     3     3     4   ar
     4     4    22    1
     5    22    23    1
     6    23    24    1
     7    24    25   ar
     8    25    26   ar
     9    26    27   ar
    10    27    28   ar
    11    28    29   ar
    12     4     5   ar
    13     5     6   ar
    14     6     7   ar
    15     7     8    1
    16     8     9   ar
    17     9    10   ar
    18    10    11   ar
    19    11    14    1
    20    14    15    1
    21    15    16    1
    22    16    17    1
    23    17    18    1
    24    18    19    1
    25    19    20    1
    26    20    21    1
    27    11    12   ar
    28    12    13   ar
    29     7     2   ar
    30    13     8   ar
    31    29    24   ar
    32    21    17    1
@<TRIPOS>MOLECULE
*****
 29 32 0 0 0
SMALL
GASTEIGER

@<TRIPOS>ATOM
      1 O         140.5427  141.5089  160.7276 O.2     1  UNL1       -0.2665
      2 C         139.9395  140.4609  161.6151 C.ar    1  UNL1        0.2679
      3 C         139.2769  140.8577  162.9010 C.ar    1  UNL1        0.0980
      4 C         138.6737  139.8096  163.7885 C.ar    1  UNL1        0.1453
      5 C         138.7330  138.3647  163.3901 C.ar    1  UNL1        0.0561
      6 C         139.3956  137.9679  162.1043 C.ar    1  UNL1        0.0860
      7 N         139.9988  139.0160  161.2168 N.ar    1  UNL1       -0.2729
      8 C         140.6614  138.6191  159.9308 C.ar    1  UNL1        0.0671
      9 C         142.1463  138.4114  159.8852 C.ar    1  UNL1        0.0207
     10 C         142.8089  138.0146  158.5993 C.ar    1  UNL1        0.0384
     11 C         141.9866  137.8253  157.3591 C.ar    1  UNL1        0.1387
     12 C         140.5018  138.0330  157.4048 C.ar    1  UNL1        0.0384
     13 C         139.8392  138.4299  158.6907 C.ar    1  UNL1        0.0207
     14 O         142.6492  137.4285  156.0733 O.3     1  UNL1       -0.4740
     15 C         143.4843  136.1839  156.0128 C.3     1  UNL1        0.2226
     16 C         142.8784  134.8565  156.3605 C.3     1  UNL1        0.1200
     17 N         143.7638  133.6848  156.6658 N.3     1  UNL1       -0.2696
     18 C         144.1231  132.5803  155.7166 C.3     1  UNL1        0.0722
     19 C         145.0267  131.6247  156.4381 C.3     1  UNL1        0.0188
     20 C         145.2258  132.1387  157.8332 C.3     1  UNL1        0.0188
     21 C         144.4453  133.4119  157.9739 C.3     1  UNL1        0.0722
     22 O         138.0111  140.2065  165.0744 O.3     1  UNL1       -0.4704
     23 C         138.2463  139.4024  166.3187 C.3     1  UNL1        0.2320
     24 C         139.4670  139.6525  167.1537 C.ar    1  UNL1        0.0212
     25 C         140.8323  139.4825  166.5561 C.ar    1  UNL1       -0.0007
     26 C         142.0530  139.7326  167.3912 C.ar    1  UNL1       -0.0002
     27 C         141.9084  140.1527  168.8239 C.ar    1  UNL1       -0.0000
     28 C         140.5431  140.3226  169.4215 C.ar    1  UNL1       -0.0002
     29 C         139.3225  140.0725  168.5865 C.ar    1  UNL1       -0.0007
@<TRIPOS>BOND
     1     1     2    2
     2     2     3   ar
     3     3     4   ar
     4     4    22    1
     5    22    23    1
     6    23    24    1
     7    24    25   ar
     8    25    26   ar
     9    26    27   ar
    10    27    28   ar
    11    28    29   ar
    12     4     5   ar
    13     5     6   ar
    14     6     7   ar
    15     7     8    1
    16     8     9   ar
    17     9    10   ar
    18    10    11   ar
    19    11    14    1
    20    14    15    1
    21    15    16    1
    22    16    17    1
    23    17    18    1
    24    18    19    1
    25    19    20    1
    26    20    21    1
    27    11    12   ar
    28    12    13   ar
    29     7     2   ar
    30    13     8   ar
    31    29    24   ar
    32    21    17    1
@<TRIPOS>MOLECULE
*****
 29 32 0 0 0
SMALL
GASTEIGER

@<TRIPOS>ATOM
      1 O         143.2862  137.9746  161.9180 O.2     1  UNL1       -0.2665
      2 C         142.3411  138.1086  160.7609 C.ar    1  UNL1        0.2679
      3 C         142.8340  137.8915  159.3609 C.ar    1  UNL1        0.0980
      4 C         141.8890  138.0254  158.2038 C.ar    1  UNL1        0.1453
      5 C         140.4510  138.3765  158.4467 C.ar    1  UNL1        0.0561
      6 C         139.9581  138.5936  159.8466 C.ar    1  UNL1        0.0860
      7 N         140.9032  138.4597  161.0037 N.ar    1  UNL1       -0.2729
      8 C         140.4103  138.6768  162.4037 C.ar    1  UNL1        0.0671
      9 C         140.2051  137.5046  163.3169 C.ar    1  UNL1        0.0207
     10 C         139.7122  137.7217  164.7168 C.ar    1  UNL1        0.0384
     11 C         139.4244  139.1111  165.2036 C.ar    1  UNL1        0.1387
     12 C         139.6295  140.2833  164.2905 C.ar    1  UNL1        0.0384
     13 C         140.1224  140.0661  162.8905 C.ar    1  UNL1        0.0207
     14 O         138.9315  139.3281  166.6036 O.3     1  UNL1       -0.4740
     15 C         139.6882  140.2291  167.5339 C.3     1  UNL1        0.2226
     16 C         141.1156  139.9229  167.8786 C.3     1  UNL1        0.1200
     17 N         142.1641  139.9292  166.8059 N.3     1  UNL1       -0.2696
     18 C         142.9159  138.7334  166.3008 C.3     1  UNL1        0.0722
     19 C         143.8614  139.1976  165.2328 C.3     1  UNL1        0.0188
     20 C         143.6939  140.6802  165.0778 C.3     1  UNL1        0.0188
     21 C         142.6450  141.1323  166.0501 C.3     1  UNL1        0.0722
     22 O         142.3819  137.8083  156.8038 O.3     1  UNL1       -0.4704
     23 C         141.7374  136.7696  155.9344 C.3     1  UNL1        0.2320
     24 C         142.0872  135.3217  156.1108 C.ar    1  UNL1        0.0212
     25 C         141.3524  134.2722  155.3307 C.ar    1  UNL1       -0.0007
     26 C         141.7022  132.8242  155.5072 C.ar    1  UNL1       -0.0002
     27 C         142.7868  132.4259  156.4637 C.ar    1  UNL1       -0.0000
     28 C         143.5215  133.4754  157.2438 C.ar    1  UNL1       -0.0002
     29 C         143.1718  134.9233  157.0674 C.ar    1  UNL1       -0.0007
@<TRIPOS>BOND
     1     1     2    2
     2     2     3   ar
     3     3     4   ar
     4     4    22    1
     5    22    23    1
     6    23    24    1
     7    24    25   ar
     8    25    26   ar
     9    26    27   ar
    10    27    28   ar
    11    28    29   ar
    12     4     5   ar
    13     5     6   ar
    14     6     7   ar
    15     7     8    1
    16     8     9   ar
    17     9    10   ar
    18    10    11   ar
    19    11    14    1
    20    14    15    1
    21    15    16    1
    22    16    17    1
    23    17    18    1
    24    18    19    1
    25    19    20    1
    26    20    21    1
    27    11    12   ar
    28    12    13   ar
    29     7     2   ar
    30    13     8   ar
    31    29    24   ar
    32    21    17    1
@<TRIPOS>MOLECULE
*****
 29 32 0 0 0
SMALL
GASTEIGER

@<TRIPOS>ATOM
      1 O         137.8192  144.0925  162.5267 O.2     1  UNL1       -0.2665
      2 C         138.1548  142.6395  162.6882 C.ar    1  UNL1        0.2679
      3 C         137.8928  141.9499  163.9943 C.ar    1  UNL1        0.0980
      4 C         138.2285  140.4969  164.1558 C.ar    1  UNL1        0.1453
      5 C         138.8262  139.7335  163.0113 C.ar    1  UNL1        0.0561
      6 C         139.0882  140.4230  161.7053 C.ar    1  UNL1        0.0860
      7 N         138.7525  141.8760  161.5438 N.ar    1  UNL1       -0.2729
      8 C         139.0146  142.5656  160.2376 C.ar    1  UNL1        0.0671
      9 C         139.9858  143.7069  160.1737 C.ar    1  UNL1        0.0207
     10 C         140.2479  144.3965  158.8677 C.ar    1  UNL1        0.0384
     11 C         139.5387  143.9447  157.6255 C.ar    1  UNL1        0.1387
     12 C         138.5674  142.8035  157.6894 C.ar    1  UNL1        0.0384
     13 C         138.3053  142.1139  158.9955 C.ar    1  UNL1        0.0207
     14 O         139.8007  144.6343  156.3194 O.3     1  UNL1       -0.4740
     15 C         139.1836  145.9728  156.0409 C.3     1  UNL1        0.2226
     16 C         139.8134  146.8954  155.0399 C.3     1  UNL1        0.1200
     17 N         139.4510  148.3509  155.0295 N.3     1  UNL1       -0.2696
     18 C         138.6372  149.0643  156.0683 C.3     1  UNL1        0.0722
     19 C         138.5220  150.5029  155.6592 C.3     1  UNL1        0.0188
     20 C         139.2645  150.6786  154.3678 C.3     1  UNL1        0.0188
     21 C         139.8386  149.3486  153.9786 C.3     1  UNL1        0.0722
     22 O         137.9664  139.8073  165.4620 O.3     1  UNL1       -0.4704
     23 C         139.1069  139.4821  166.3804 C.3     1  UNL1        0.2320
     24 C         139.5523  140.4818  167.4062 C.ar    1  UNL1        0.0212
     25 C         139.2985  140.2261  168.8623 C.ar    1  UNL1       -0.0007
     26 C         139.7439  141.2259  169.8881 C.ar    1  UNL1       -0.0002
     27 C         140.4431  142.4812  169.4578 C.ar    1  UNL1       -0.0000
     28 C         140.6969  142.7369  168.0017 C.ar    1  UNL1       -0.0002
     29 C         140.2515  141.7372  166.9759 C.ar    1  UNL1       -0.0007
@<TRIPOS>BOND
     1     1     2    2
     2     2     3   ar
     3     3     4   ar
     4     4    22    1
     5    22    23    1
     6    23    24    1
     7    24    25   ar
     8    25    26   ar
     9    26    27   ar
    10    27    28   ar
    11    28    29   ar
    12     4     5   ar
    13     5     6   ar
    14     6     7   ar
    15     7     8    1
    16     8     9   ar
    17     9    10   ar
    18    10    11   ar
    19    11    14    1
    20    14    15    1
    21    15    16    1
    22    16    17    1
    23    17    18    1
    24    18    19    1
    25    19    20    1
    26    20    21    1
    27    11    12   ar
    28    12    13   ar
    29     7     2   ar
    30    13     8   ar
    31    29    24   ar
    32    21    17    1
@<TRIPOS>MOLECULE
*****
 29 32 0 0 0
SMALL
GASTEIGER

@<TRIPOS>ATOM
      1 O         139.5318  137.6602  161.5061 O.2     1  UNL1       -0.2665
      2 C         139.1752  139.0715  161.1439 C.ar    1  UNL1        0.2679
      3 C         138.3882  139.9157  162.1021 C.ar    1  UNL1        0.0980
      4 C         138.0316  141.3269  161.7399 C.ar    1  UNL1        0.1453
      5 C         138.4618  141.8940  160.4195 C.ar    1  UNL1        0.0561
      6 C         139.2488  141.0498  159.4614 C.ar    1  UNL1        0.0860
      7 N         139.6054  139.6385  159.8236 N.ar    1  UNL1       -0.2729
      8 C         140.3924  138.7943  158.8654 C.ar    1  UNL1        0.0671
      9 C         141.8485  138.5350  159.1157 C.ar    1  UNL1        0.0207
     10 C         142.6354  137.6909  158.1575 C.ar    1  UNL1        0.0384
     11 C         141.9663  137.1060  156.9491 C.ar    1  UNL1        0.1387
     12 C         140.5103  137.3653  156.6988 C.ar    1  UNL1        0.0384
     13 C         139.7233  138.2095  157.6570 C.ar    1  UNL1        0.0207
     14 O         142.7533  136.2618  155.9910 O.3     1  UNL1       -0.4740
     15 C         143.6786  135.2018  156.5107 C.3     1  UNL1        0.2226
     16 C         143.1242  134.0144  157.2405 C.3     1  UNL1        0.1200
     17 N         142.5121  132.8807  156.4723 N.3     1  UNL1       -0.2696
     18 C         141.4688  133.0030  155.4014 C.3     1  UNL1        0.0722
     19 C         141.1478  131.6234  154.9075 C.3     1  UNL1        0.0188
     20 C         141.9926  130.6486  155.6730 C.3     1  UNL1        0.0188
     21 C         142.8358  131.4256  156.6401 C.3     1  UNL1        0.0722
     22 O         137.2446  142.1711  162.6981 O.3     1  UNL1       -0.4704
     23 C         137.6615  143.5866  162.9674 C.3     1  UNL1        0.2320
     24 C         139.0747  143.8887  163.3694 C.ar    1  UNL1        0.0212
     25 C         139.7228  143.1095  164.4751 C.ar    1  UNL1       -0.0007
     26 C         141.1361  143.4116  164.8771 C.ar    1  UNL1       -0.0002
     27 C         141.9011  144.4930  164.1733 C.ar    1  UNL1       -0.0000
     28 C         141.2530  145.2722  163.0675 C.ar    1  UNL1       -0.0002
     29 C         139.8398  144.9701  162.6655 C.ar    1  UNL1       -0.0007
@<TRIPOS>BOND
     1     1     2    2
     2     2     3   ar
     3     3     4   ar
     4     4    22    1
     5    22    23    1
     6    23    24    1
     7    24    25   ar
     8    25    26   ar
     9    26    27   ar
    10    27    28   ar
    11    28    29   ar
    12     4     5   ar
    13     5     6   ar
    14     6     7   ar
    15     7     8    1
    16     8     9   ar
    17     9    10   ar
    18    10    11   ar
    19    11    14    1
    20    14    15    1
    21    15    16    1
    22    16    17    1
    23    17    18    1
    24    18    19    1
    25    19    20    1
    26    20    21    1
    27    11    12   ar
    28    12    13   ar
    29     7     2   ar
    30    13     8   ar
    31    29    24   ar
    32    21    17    1
@<TRIPOS>MOLECULE
*****
 29 32 0 0 0
SMALL
GASTEIGER

@<TRIPOS>ATOM
      1 O         142.0145  141.5530  162.4965 O.2     1  UNL1       -0.2665
      2 C         141.2269  142.8209  162.3475 C.ar    1  UNL1        0.2679
      3 C         141.4582  143.7129  161.1640 C.ar    1  UNL1        0.0980
      4 C         140.6706  144.9807  161.0150 C.ar    1  UNL1        0.1453
      5 C         139.6517  145.3566  162.0496 C.ar    1  UNL1        0.0561
      6 C         139.4203  144.4646  163.2331 C.ar    1  UNL1        0.0860
      7 N         140.2079  143.1968  163.3821 N.ar    1  UNL1       -0.2729
      8 C         139.9765  142.3048  164.5657 C.ar    1  UNL1        0.0671
      9 C         138.9999  141.1703  164.4703 C.ar    1  UNL1        0.0207
     10 C         138.7685  140.2783  165.6538 C.ar    1  UNL1        0.0384
     11 C         139.5137  140.5208  166.9329 C.ar    1  UNL1        0.1387
     12 C         140.4904  141.6553  167.0283 C.ar    1  UNL1        0.0384
     13 C         140.7218  142.5473  165.8447 C.ar    1  UNL1        0.0207
     14 O         139.2823  139.6288  168.1164 O.3     1  UNL1       -0.4740
     15 C         139.2028  140.2164  169.4942 C.3     1  UNL1        0.2226
     16 C         140.3783  140.1176  170.4207 C.3     1  UNL1        0.1200
     17 N         141.5098  141.0954  170.3037 N.3     1  UNL1       -0.2696
     18 C         141.4358  142.5671  170.5844 C.3     1  UNL1        0.0722
     19 C         142.7942  143.1544  170.3397 C.3     1  UNL1        0.0188
     20 C         143.7077  142.0458  169.9079 C.3     1  UNL1        0.0188
     21 C         142.9139  140.7732  169.8857 C.3     1  UNL1        0.0722
     22 O         140.9020  145.8727  159.8314 O.3     1  UNL1       -0.4704
     23 C         141.4105  145.2941  158.5443 C.3     1  UNL1        0.2320
     24 C         140.9060  145.8215  157.2339 C.ar    1  UNL1        0.0212
     25 C         141.6498  145.5183  155.9670 C.ar    1  UNL1       -0.0007
     26 C         141.1452  146.0457  154.6565 C.ar    1  UNL1       -0.0002
     27 C         139.8969  146.8762  154.6129 C.ar    1  UNL1       -0.0000
     28 C         139.1531  147.1794  155.8797 C.ar    1  UNL1       -0.0002
     29 C         139.6576  146.6520  157.1902 C.ar    1  UNL1       -0.0007
@<TRIPOS>BOND
     1     1     2    2
     2     2     3   ar
     3     3     4   ar
     4     4    22    1
     5    22    23    1
     6    23    24    1
     7    24    25   ar
     8    25    26   ar
     9    26    27   ar
    10    27    28   ar
    11    28    29   ar
    12     4     5   ar
    13     5     6   ar
    14     6     7   ar
    15     7     8    1
    16     8     9   ar
    17     9    10   ar
    18    10    11   ar
    19    11    14    1
    20    14    15    1
    21    15    16    1
    22    16    17    1
    23    17    18    1
    24    18    19    1
    25    19    20    1
    26    20    21    1
    27    11    12   ar
    28    12    13   ar
    29     7     2   ar
    30    13     8   ar
    31    29    24   ar
    32    21    17    1
