@<TRIPOS>MOLECULE
*****
 33 36 0 0 0
SMALL
GASTEIGER

@<TRIPOS>ATOM
      1 N         138.2106  139.5851  164.5565 N.am    1  UNL1       -0.2999
      2 C         138.8700  138.9824  163.3516 C.2     1  UNL1        0.2701
      3 O         140.3603  139.0541  163.1975 O.2     1  UNL1       -0.2706
      4 H         137.2325  139.5380  164.6577 H       1  UNL1        0.1496
      5 N         140.2170  141.2138  167.0935 N.3     1  UNL1       -0.2711
      6 C         139.7581  141.5736  165.7115 C.3     1  UNL1        0.0933
      7 C         139.0417  140.2597  165.6074 C.3     1  UNL1        0.1035
      8 C         139.5007  139.9000  166.9893 C.3     1  UNL1        0.0933
      9 N         143.5414  143.9119  171.2969 N.3     1  UNL1       -0.3222
     10 C         142.7102  143.2375  170.2461 C.3     1  UNL1        0.0509
     11 C         141.2671  143.6102  170.0776 C.3     1  UNL1        0.0169
     12 C         140.4360  142.9356  169.0267 C.3     1  UNL1        0.0173
     13 C         141.0481  141.8883  168.1444 C.3     1  UNL1        0.0577
     14 C         142.4912  141.5156  168.3129 C.3     1  UNL1        0.0173
     15 C         143.3223  142.1901  169.3636 C.3     1  UNL1        0.0169
     16 H         142.9691  144.5904  171.7993 H       1  UNL1        0.1188
     17 H         144.3261  144.3903  170.8544 H       1  UNL1        0.1188
     18 C         138.0389  138.3078  162.3007 C.3     1  UNL1        0.2850
     19 N         137.2546  139.1308  161.3221 N.pl3   1  UNL1       -0.2091
     20 H         136.2780  139.0232  161.2597 H       1  UNL1        0.2928
     21 C         137.9584  140.1178  160.4386 C.2     1  UNL1        0.3493
     22 N         138.3451  139.8995  159.0058 N.2     1  UNL1        0.0798
     23 N         139.0246  141.1432  158.5145 N.2     1  UNL1       -0.0381
     24 C         139.0579  142.1302  159.6436 C.2     1  UNL1        0.1169
     25 C         139.6031  143.5240  159.7425 C.3     1  UNL1        0.0759
     26 C         139.4893  144.2842  161.0306 C.2     1  UNL1       -0.0158
     27 C         138.8303  143.6505  162.2197 C.2     1  UNL1        0.0678
     28 C         138.2851  142.2566  162.1208 C.2     1  UNL1        0.0123
     29 C         138.3989  141.4965  160.8327 C.2     1  UNL1        0.1019
     30 C         138.7165  144.4107  163.5079 C.3     1  UNL1        0.4183
     31 F         138.6028  145.1709  164.7959 F       1  UNL1       -0.1659
     32 F         137.6611  143.4546  163.9789 F       1  UNL1       -0.1659
     33 F         139.7720  145.3667  163.0368 F       1  UNL1       -0.1659
@<TRIPOS>BOND
     1    10     9    1
     2    10    11    1
     3    11    12    1
     4    12    13    1
     5    13     5    1
     6     5     6    1
     7     6     7    1
     8     7     1    1
     9     1     2   am
    10     2     3    2
    11     2    18    1
    12    18    19    1
    13    19    21    1
    14    21    22    2
    15    22    23    1
    16    23    24    2
    17    24    25    1
    18    25    26    1
    19    26    27    2
    20    27    30    1
    21    30    31    1
    22    30    32    1
    23    30    33    1
    24    27    28    1
    25    28    29    2
    26     7     8    1
    27    13    14    1
    28    14    15    1
    29    15    10    1
    30     8     5    1
    31    29    21    1
    32    29    24    1
    33     9    16    1
    34     9    17    1
    35     1     4    1
    36    19    20    1
@<TRIPOS>MOLECULE
*****
 33 36 0 0 0
SMALL
GASTEIGER

@<TRIPOS>ATOM
      1 N         137.8754  139.6750  163.6286 N.am    1  UNL1       -0.2999
      2 C         138.3097  138.6053  162.6710 C.2     1  UNL1        0.2701
      3 O         139.4390  137.6872  163.0339 O.2     1  UNL1       -0.2706
      4 H         137.1342  140.2776  163.3905 H       1  UNL1        0.1496
      5 N         139.5534  140.0408  166.8168 N.3     1  UNL1       -0.2711
      6 C         138.6622  139.0038  166.2002 C.3     1  UNL1        0.0933
      7 C         138.5704  139.8266  164.9492 C.3     1  UNL1        0.1035
      8 C         139.4616  140.8635  165.5660 C.3     1  UNL1        0.0933
      9 N         142.3336  140.6471  172.0991 N.3     1  UNL1       -0.3222
     10 C         141.6386  140.4955  170.7786 C.3     1  UNL1        0.0509
     11 C         142.4115  140.0566  169.5703 C.3     1  UNL1        0.0169
     12 C         141.7164  139.9051  168.2497 C.3     1  UNL1        0.0173
     13 C         140.2485  140.1924  168.1374 C.3     1  UNL1        0.0577
     14 C         139.4756  140.6313  169.3457 C.3     1  UNL1        0.0173
     15 C         140.1706  140.7829  170.6662 C.3     1  UNL1        0.0169
     16 H         143.3205  140.4127  171.9928 H       1  UNL1        0.1188
     17 H         141.9069  140.0207  172.7818 H       1  UNL1        0.1188
     18 C         137.6146  138.4537  161.3505 C.3     1  UNL1        0.2850
     19 N         137.0516  139.6586  160.6565 N.pl3   1  UNL1       -0.2091
     20 H         136.0772  139.7604  160.5597 H       1  UNL1        0.2928
     21 C         137.9733  140.7084  160.1103 C.2     1  UNL1        0.3493
     22 N         138.6233  140.6941  158.7585 N.2     1  UNL1        0.0798
     23 N         139.4585  141.9336  158.6326 N.2     1  UNL1       -0.0381
     24 C         139.3248  142.7140  159.9067 C.2     1  UNL1        0.1169
     25 C         139.9203  144.0163  160.3532 C.3     1  UNL1        0.0759
     26 C         139.5978  144.5614  161.7129 C.2     1  UNL1       -0.0158
     27 C         138.6799  143.8041  162.6261 C.2     1  UNL1        0.0678
     28 C         138.0844  142.5018  162.1796 C.2     1  UNL1        0.0123
     29 C         138.4069  141.9568  160.8199 C.2     1  UNL1        0.1019
     30 C         138.3574  144.3492  163.9859 C.3     1  UNL1        0.4183
     31 F         138.0350  144.8943  165.3456 F       1  UNL1       -0.1659
     32 F         139.3491  145.4552  163.7778 F       1  UNL1       -0.1659
     33 F         137.3657  143.2433  164.1940 F       1  UNL1       -0.1659
@<TRIPOS>BOND
     1    10     9    1
     2    10    11    1
     3    11    12    1
     4    12    13    1
     5    13     5    1
     6     5     6    1
     7     6     7    1
     8     7     1    1
     9     1     2   am
    10     2     3    2
    11     2    18    1
    12    18    19    1
    13    19    21    1
    14    21    22    2
    15    22    23    1
    16    23    24    2
    17    24    25    1
    18    25    26    1
    19    26    27    2
    20    27    30    1
    21    30    31    1
    22    30    32    1
    23    30    33    1
    24    27    28    1
    25    28    29    2
    26     7     8    1
    27    13    14    1
    28    14    15    1
    29    15    10    1
    30     8     5    1
    31    29    21    1
    32    29    24    1
    33     9    16    1
    34     9    17    1
    35     1     4    1
    36    19    20    1
@<TRIPOS>MOLECULE
*****
 33 36 0 0 0
SMALL
GASTEIGER

@<TRIPOS>ATOM
      1 N         139.0778  138.9516  164.4304 N.am    1  UNL1       -0.2999
      2 C         138.5250  139.6571  163.2276 C.2     1  UNL1        0.2701
      3 O         138.6498  141.1471  163.1087 O.2     1  UNL1       -0.2706
      4 H         138.9959  137.9737  164.5083 H       1  UNL1        0.1496
      5 N         140.7136  140.8461  167.0475 N.3     1  UNL1       -0.2711
      6 C         139.5872  139.8567  167.0002 C.3     1  UNL1        0.0933
      7 C         139.7554  139.7364  165.5144 C.3     1  UNL1        0.1035
      8 C         140.8818  140.7257  165.5619 C.3     1  UNL1        0.0933
      9 N         143.4238  143.9850  171.3836 N.3     1  UNL1       -0.3222
     10 C         142.7463  143.2002  170.2996 C.3     1  UNL1        0.0509
     11 C         143.4862  142.1029  169.5937 C.3     1  UNL1        0.0169
     12 C         142.8086  141.3181  168.5097 C.3     1  UNL1        0.0173
     13 C         141.3912  141.6308  168.1316 C.3     1  UNL1        0.0577
     14 C         140.6513  142.7282  168.8374 C.3     1  UNL1        0.0173
     15 C         141.3288  143.5129  169.9214 C.3     1  UNL1        0.0169
     16 H         144.3759  143.6410  171.5081 H       1  UNL1        0.1188
     17 H         142.9063  143.8766  172.2559 H       1  UNL1        0.1188
     18 C         137.8475  138.8723  162.1435 C.3     1  UNL1        0.2850
     19 N         138.6051  137.8133  161.3987 N.pl3   1  UNL1       -0.2091
     20 H         138.3693  136.8647  161.5162 H       1  UNL1        0.2928
     21 C         139.7220  138.1997  160.4751 C.2     1  UNL1        0.3493
     22 N         139.6377  138.2931  158.9803 N.2     1  UNL1        0.0798
     23 N         140.9830  138.7116  158.4655 N.2     1  UNL1       -0.0381
     24 C         141.8987  138.8768  159.6420 C.2     1  UNL1        0.1169
     25 C         143.3415  139.2745  159.7427 C.3     1  UNL1        0.0759
     26 C         144.0050  139.3558  161.0855 C.2     1  UNL1       -0.0158
     27 C         143.2257  139.0394  162.3275 C.2     1  UNL1        0.0678
     28 C         141.7829  138.6417  162.2268 C.2     1  UNL1        0.0123
     29 C         141.1194  138.5604  160.8840 C.2     1  UNL1        0.1019
     30 C         143.8892  139.1207  163.6704 C.3     1  UNL1        0.4183
     31 F         144.5527  139.2020  165.0132 F       1  UNL1       -0.1659
     32 F         144.7358  140.2591  163.1832 F       1  UNL1       -0.1659
     33 F         143.0426  137.9824  164.1576 F       1  UNL1       -0.1659
@<TRIPOS>BOND
     1    10     9    1
     2    10    11    1
     3    11    12    1
     4    12    13    1
     5    13     5    1
     6     5     6    1
     7     6     7    1
     8     7     1    1
     9     1     2   am
    10     2     3    2
    11     2    18    1
    12    18    19    1
    13    19    21    1
    14    21    22    2
    15    22    23    1
    16    23    24    2
    17    24    25    1
    18    25    26    1
    19    26    27    2
    20    27    30    1
    21    30    31    1
    22    30    32    1
    23    30    33    1
    24    27    28    1
    25    28    29    2
    26     7     8    1
    27    13    14    1
    28    14    15    1
    29    15    10    1
    30     8     5    1
    31    29    21    1
    32    29    24    1
    33     9    16    1
    34     9    17    1
    35     1     4    1
    36    19    20    1
@<TRIPOS>MOLECULE
*****
 33 36 0 0 0
SMALL
GASTEIGER

@<TRIPOS>ATOM
      1 N         141.0677  144.9574  163.1004 N.am    1  UNL1       -0.2999
      2 C         140.0323  144.9802  162.0153 C.2     1  UNL1        0.2701
      3 O         138.7693  144.1853  162.1669 O.2     1  UNL1       -0.2706
      4 H         141.8966  145.4792  163.0009 H       1  UNL1        0.1496
      5 N         140.5180  142.9832  166.0861 N.3     1  UNL1       -0.2711
      6 C         139.7289  144.0160  165.3373 C.3     1  UNL1        0.0933
      7 C         140.8400  144.1397  164.3371 C.3     1  UNL1        0.1035
      8 C         141.6290  143.1068  165.0859 C.3     1  UNL1        0.0933
      9 N         139.6074  139.7119  171.0328 N.3     1  UNL1       -0.3222
     10 C         139.8351  140.5298  169.7962 C.3     1  UNL1        0.0509
     11 C         140.3303  141.9410  169.9109 C.3     1  UNL1        0.0169
     12 C         140.5579  142.7588  168.6742 C.3     1  UNL1        0.0173
     13 C         140.2904  142.1654  167.3228 C.3     1  UNL1        0.0577
     14 C         139.7952  140.7541  167.2081 C.3     1  UNL1        0.0173
     15 C         139.5676  139.9363  168.4447 C.3     1  UNL1        0.0169
     16 H         139.8381  140.2685  171.8558 H       1  UNL1        0.1188
     17 H         140.2007  138.8826  171.0059 H       1  UNL1        0.1188
     18 C         140.2600  145.7980  160.7787 C.3     1  UNL1        0.2850
     19 N         141.4385  145.5110  159.8960 N.pl3   1  UNL1       -0.2091
     20 H         142.0414  146.2413  159.6270 H       1  UNL1        0.2928
     21 C         141.6983  144.1113  159.4235 C.2     1  UNL1        0.3493
     22 N         141.1085  143.4691  158.2029 N.2     1  UNL1        0.0798
     23 N         141.6392  142.0690  158.1136 N.2     1  UNL1       -0.0381
     24 C         142.5569  141.8458  159.2790 C.2     1  UNL1        0.1169
     25 C         143.3640  140.6564  159.7075 C.3     1  UNL1        0.0759
     26 C         144.2076  140.7292  160.9457 C.2     1  UNL1       -0.0158
     27 C         144.2441  141.9914  161.7552 C.2     1  UNL1        0.0678
     28 C         143.4370  143.1809  161.3266 C.2     1  UNL1        0.0123
     29 C         142.5934  143.1081  160.0885 C.2     1  UNL1        0.1019
     30 C         145.0878  142.0642  162.9934 C.3     1  UNL1        0.4183
     31 F         145.9314  142.1369  164.2315 F       1  UNL1       -0.1659
     32 F         144.8433  143.5420  163.0732 F       1  UNL1       -0.1659
     33 F         145.3322  140.5864  162.9136 F       1  UNL1       -0.1659
@<TRIPOS>BOND
     1    10     9    1
     2    10    11    1
     3    11    12    1
     4    12    13    1
     5    13     5    1
     6     5     6    1
     7     6     7    1
     8     7     1    1
     9     1     2   am
    10     2     3    2
    11     2    18    1
    12    18    19    1
    13    19    21    1
    14    21    22    2
    15    22    23    1
    16    23    24    2
    17    24    25    1
    18    25    26    1
    19    26    27    2
    20    27    30    1
    21    30    31    1
    22    30    32    1
    23    30    33    1
    24    27    28    1
    25    28    29    2
    26     7     8    1
    27    13    14    1
    28    14    15    1
    29    15    10    1
    30     8     5    1
    31    29    21    1
    32    29    24    1
    33     9    16    1
    34     9    17    1
    35     1     4    1
    36    19    20    1
@<TRIPOS>MOLECULE
*****
 33 36 0 0 0
SMALL
GASTEIGER

@<TRIPOS>ATOM
      1 N         144.0840  138.7545  163.9667 N.am    1  UNL1       -0.2999
      2 C         143.1712  138.4257  162.8228 C.2     1  UNL1        0.2701
      3 O         141.6914  138.6277  162.9622 O.2     1  UNL1       -0.2706
      4 H         145.0553  138.6219  163.8752 H       1  UNL1        0.1496
      5 N         142.7152  140.0360  167.0648 N.3     1  UNL1       -0.2711
      6 C         142.8933  140.5804  165.6785 C.3     1  UNL1        0.0933
      7 C         143.5171  139.2852  165.2500 C.3     1  UNL1        0.1035
      8 C         143.3390  138.7409  166.6363 C.3     1  UNL1        0.0933
      9 N         140.4473  142.1590  172.1979 N.3     1  UNL1       -0.3222
     10 C         141.0143  141.6283  170.9147 C.3     1  UNL1        0.0509
     11 C         142.4027  142.0095  170.4938 C.3     1  UNL1        0.0169
     12 C         142.9697  141.4787  169.2105 C.3     1  UNL1        0.0173
     13 C         142.1483  140.5668  168.3481 C.3     1  UNL1        0.0577
     14 C         140.7599  140.1856  168.7690 C.3     1  UNL1        0.0173
     15 C         140.1930  140.7164  170.0522 C.3     1  UNL1        0.0169
     16 H         141.1367  142.7580  172.6522 H       1  UNL1        0.1188
     17 H         140.2144  141.3805  172.8144 H       1  UNL1        0.1188
     18 C         143.7381  137.8949  161.5395 C.3     1  UNL1        0.2850
     19 N         144.4315  138.8221  160.5857 N.pl3   1  UNL1       -0.2091
     20 H         145.3226  138.5923  160.2359 H       1  UNL1        0.2928
     21 C         143.7671  140.0994  160.1648 C.2     1  UNL1        0.3493
     22 N         143.0505  140.3349  158.8683 N.2     1  UNL1        0.0798
     23 N         142.5432  141.7465  158.8689 N.2     1  UNL1       -0.0381
     24 C         142.9463  142.3834  160.1657 C.2     1  UNL1        0.1169
     25 C         142.7224  143.7588  160.7207 C.3     1  UNL1        0.0759
     26 C         143.2548  144.1162  162.0767 C.2     1  UNL1       -0.0158
     27 C         144.0112  143.0983  162.8776 C.2     1  UNL1        0.0678
     28 C         144.2352  141.7229  162.3226 C.2     1  UNL1        0.0123
     29 C         143.7028  141.3655  160.9667 C.2     1  UNL1        0.1019
     30 C         144.5437  143.4558  164.2337 C.3     1  UNL1        0.4183
     31 F         145.0761  143.8133  165.5896 F       1  UNL1       -0.1659
     32 F         145.3764  142.2081  164.2357 F       1  UNL1       -0.1659
     33 F         143.7110  144.7034  164.2317 F       1  UNL1       -0.1659
@<TRIPOS>BOND
     1    10     9    1
     2    10    11    1
     3    11    12    1
     4    12    13    1
     5    13     5    1
     6     5     6    1
     7     6     7    1
     8     7     1    1
     9     1     2   am
    10     2     3    2
    11     2    18    1
    12    18    19    1
    13    19    21    1
    14    21    22    2
    15    22    23    1
    16    23    24    2
    17    24    25    1
    18    25    26    1
    19    26    27    2
    20    27    30    1
    21    30    31    1
    22    30    32    1
    23    30    33    1
    24    27    28    1
    25    28    29    2
    26     7     8    1
    27    13    14    1
    28    14    15    1
    29    15    10    1
    30     8     5    1
    31    29    21    1
    32    29    24    1
    33     9    16    1
    34     9    17    1
    35     1     4    1
    36    19    20    1
@<TRIPOS>MOLECULE
*****
 33 36 0 0 0
SMALL
GASTEIGER

@<TRIPOS>ATOM
      1 N         139.6116  140.1570  162.4715 N.am    1  UNL1       -0.2999
      2 C         139.7564  138.7420  161.9953 C.2     1  UNL1        0.2701
      3 O         140.0246  137.6429  162.9802 O.2     1  UNL1       -0.2706
      4 H         139.4355  140.8783  161.8250 H       1  UNL1        0.1496
      5 N         139.9101  140.9196  165.9990 N.3     1  UNL1       -0.2711
      6 C         140.8595  140.4760  164.9257 C.3     1  UNL1        0.0933
      7 C         139.7352  140.4729  163.9326 C.3     1  UNL1        0.1035
      8 C         138.7860  140.9164  165.0059 C.3     1  UNL1        0.0933
      9 N         140.4045  142.1833  171.8435 N.3     1  UNL1       -0.3222
     10 C         140.2809  141.8673  170.3825 C.3     1  UNL1        0.0509
     11 C         139.7636  140.5288  169.9456 C.3     1  UNL1        0.0169
     12 C         139.6400  140.2129  168.4845 C.3     1  UNL1        0.0173
     13 C         140.0337  141.2355  167.4602 C.3     1  UNL1        0.0577
     14 C         140.5510  142.5740  167.8970 C.3     1  UNL1        0.0173
     15 C         140.6746  142.8899  169.3580 C.3     1  UNL1        0.0169
     16 H         140.0953  141.3810  172.3922 H       1  UNL1        0.1188
     17 H         139.8243  142.9919  172.0668 H       1  UNL1        0.1188
     18 C         139.6328  138.4261  160.5342 C.3     1  UNL1        0.2850
     19 N         140.8401  138.4972  159.6467 N.pl3   1  UNL1       -0.2091
     20 H         141.1143  137.7090  159.1245 H       1  UNL1        0.2928
     21 C         141.6294  139.7695  159.5548 C.2     1  UNL1        0.3493
     22 N         141.5006  140.8115  158.4836 N.2     1  UNL1        0.0798
     23 N         142.4777  141.9090  158.7848 N.2     1  UNL1       -0.0381
     24 C         143.2104  141.5452  160.0421 C.2     1  UNL1        0.1169
     25 C         144.2872  142.2472  160.8152 C.3     1  UNL1        0.0759
     26 C         144.8397  141.6269  162.0641 C.2     1  UNL1       -0.0158
     27 C         144.3154  140.3045  162.5400 C.2     1  UNL1        0.0678
     28 C         143.2386  139.6025  161.7669 C.2     1  UNL1        0.0123
     29 C         142.6861  140.2229  160.5180 C.2     1  UNL1        0.1019
     30 C         144.8680  139.6841  163.7890 C.3     1  UNL1        0.4183
     31 F         145.4206  139.0639  165.0379 F       1  UNL1       -0.1659
     32 F         143.8433  138.5924  163.7001 F       1  UNL1       -0.1659
     33 F         145.8927  140.7759  163.8778 F       1  UNL1       -0.1659
@<TRIPOS>BOND
     1    10     9    1
     2    10    11    1
     3    11    12    1
     4    12    13    1
     5    13     5    1
     6     5     6    1
     7     6     7    1
     8     7     1    1
     9     1     2   am
    10     2     3    2
    11     2    18    1
    12    18    19    1
    13    19    21    1
    14    21    22    2
    15    22    23    1
    16    23    24    2
    17    24    25    1
    18    25    26    1
    19    26    27    2
    20    27    30    1
    21    30    31    1
    22    30    32    1
    23    30    33    1
    24    27    28    1
    25    28    29    2
    26     7     8    1
    27    13    14    1
    28    14    15    1
    29    15    10    1
    30     8     5    1
    31    29    21    1
    32    29    24    1
    33     9    16    1
    34     9    17    1
    35     1     4    1
    36    19    20    1
@<TRIPOS>MOLECULE
*****
 33 36 0 0 0
SMALL
GASTEIGER

@<TRIPOS>ATOM
      1 N         142.1313  139.4558  162.6832 N.am    1  UNL1       -0.2999
      2 C         143.5375  139.3470  162.1725 C.2     1  UNL1        0.2701
      3 O         144.6891  139.3810  163.1331 O.2     1  UNL1       -0.2706
      4 H         141.3755  139.4335  162.0528 H       1  UNL1        0.1496
      5 N         141.5168  139.8005  166.2354 N.3     1  UNL1       -0.2711
      6 C         141.4972  138.6599  165.2613 C.3     1  UNL1        0.0933
      7 C         141.8768  139.5986  164.1546 C.3     1  UNL1        0.1035
      8 C         141.8963  140.7391  165.1286 C.3     1  UNL1        0.0933
      9 N         140.4987  140.3717  172.1207 N.3     1  UNL1       -0.3222
     10 C         140.7531  140.2289  170.6494 C.3     1  UNL1        0.0509
     11 C         139.6457  140.4785  169.6689 C.3     1  UNL1        0.0169
     12 C         139.9002  140.3357  168.1976 C.3     1  UNL1        0.0173
     13 C         141.2622  139.9433  167.7067 C.3     1  UNL1        0.0577
     14 C         142.3696  139.6937  168.6871 C.3     1  UNL1        0.0173
     15 C         142.1151  139.8365  170.1584 C.3     1  UNL1        0.0169
     16 H         139.5269  140.6417  172.2730 H       1  UNL1        0.1188
     17 H         141.1148  141.0883  172.5043 H       1  UNL1        0.1188
     18 C         143.7920  139.2042  160.7012 C.3     1  UNL1        0.2850
     19 N         144.0219  140.4234  159.8580 N.pl3   1  UNL1       -0.2091
     20 H         144.8007  140.4667  159.2572 H       1  UNL1        0.2928
     21 C         143.0653  141.5765  159.9302 C.2     1  UNL1        0.3493
     22 N         142.0214  141.9213  158.9097 N.2     1  UNL1        0.0798
     23 N         141.2957  143.1452  159.3844 N.2     1  UNL1       -0.0381
     24 C         141.8910  143.5568  160.6982 C.2     1  UNL1        0.1169
     25 C         141.5784  144.6891  161.6310 C.3     1  UNL1        0.0759
     26 C         142.3597  144.8520  162.9011 C.2     1  UNL1       -0.0158
     27 C         143.4534  143.8825  163.2384 C.2     1  UNL1        0.0678
     28 C         143.7659  142.7501  162.3056 C.2     1  UNL1        0.0123
     29 C         142.9847  142.5873  161.0356 C.2     1  UNL1        0.1019
     30 C         144.2346  144.0454  164.5085 C.3     1  UNL1        0.4183
     31 F         145.0158  144.2082  165.7786 F       1  UNL1       -0.1659
     32 F         143.8617  145.4976  164.5518 F       1  UNL1       -0.1659
     33 F         144.6076  142.5931  164.4653 F       1  UNL1       -0.1659
@<TRIPOS>BOND
     1    10     9    1
     2    10    11    1
     3    11    12    1
     4    12    13    1
     5    13     5    1
     6     5     6    1
     7     6     7    1
     8     7     1    1
     9     1     2   am
    10     2     3    2
    11     2    18    1
    12    18    19    1
    13    19    21    1
    14    21    22    2
    15    22    23    1
    16    23    24    2
    17    24    25    1
    18    25    26    1
    19    26    27    2
    20    27    30    1
    21    30    31    1
    22    30    32    1
    23    30    33    1
    24    27    28    1
    25    28    29    2
    26     7     8    1
    27    13    14    1
    28    14    15    1
    29    15    10    1
    30     8     5    1
    31    29    21    1
    32    29    24    1
    33     9    16    1
    34     9    17    1
    35     1     4    1
    36    19    20    1
@<TRIPOS>MOLECULE
*****
 33 36 0 0 0
SMALL
GASTEIGER

@<TRIPOS>ATOM
      1 N         142.5537  138.3687  163.7991 N.am    1  UNL1       -0.2999
      2 C         143.6387  138.9762  162.9603 C.2     1  UNL1        0.2701
      3 O         144.1846  140.3300  163.3056 O.2     1  UNL1       -0.2706
      4 H         142.1955  137.4801  163.5725 H       1  UNL1        0.1496
      5 N         141.2520  140.1707  166.6579 N.3     1  UNL1       -0.2711
      6 C         140.8456  140.0245  165.2214 C.3     1  UNL1        0.0933
      7 C         142.0146  139.1151  164.9833 C.3     1  UNL1        0.1035
      8 C         142.4209  139.2613  166.4198 C.3     1  UNL1        0.0933
      9 N         139.0954  143.1560  171.3946 N.3     1  UNL1       -0.3222
     10 C         139.6346  142.4098  170.2104 C.3     1  UNL1        0.0509
     11 C         140.5401  143.1028  169.2359 C.3     1  UNL1        0.0169
     12 C         141.0793  142.3564  168.0517 C.3     1  UNL1        0.0173
     13 C         140.7129  140.9170  167.8421 C.3     1  UNL1        0.0577
     14 C         139.8073  140.2240  168.8166 C.3     1  UNL1        0.0173
     15 C         139.2682  140.9703  170.0007 C.3     1  UNL1        0.0169
     16 H         139.4439  144.1145  171.3800 H       1  UNL1        0.1188
     17 H         139.3994  142.6967  172.2531 H       1  UNL1        0.1188
     18 C         144.1779  138.2298  161.7761 C.3     1  UNL1        0.2850
     19 N         143.2824  137.3137  160.9958 N.pl3   1  UNL1       -0.2091
     20 H         143.2193  136.3619  161.2393 H       1  UNL1        0.2928
     21 C         142.4830  137.8478  159.8444 C.2     1  UNL1        0.3493
     22 N         142.8643  137.7715  158.3957 N.2     1  UNL1        0.0798
     23 N         141.7788  138.4285  157.5955 N.2     1  UNL1       -0.0381
     24 C         140.7267  138.9108  158.5497 C.2     1  UNL1        0.1169
     25 C         139.4287  139.6304  158.3325 C.3     1  UNL1        0.0759
     26 C         138.5658  139.9910  159.5053 C.2     1  UNL1       -0.0158
     27 C         139.0010  139.6321  160.8952 C.2     1  UNL1        0.0678
     28 C         140.2990  138.9125  161.1123 C.2     1  UNL1        0.0123
     29 C         141.1619  138.5519  159.9396 C.2     1  UNL1        0.1019
     30 C         138.1380  139.9928  162.0679 C.3     1  UNL1        0.4183
     31 F         137.2751  140.3535  163.2406 F       1  UNL1       -0.1659
     32 F         138.7647  138.8898  162.8683 F       1  UNL1       -0.1659
     33 F         137.5113  141.0957  161.2675 F       1  UNL1       -0.1659
@<TRIPOS>BOND
     1    10     9    1
     2    10    11    1
     3    11    12    1
     4    12    13    1
     5    13     5    1
     6     5     6    1
     7     6     7    1
     8     7     1    1
     9     1     2   am
    10     2     3    2
    11     2    18    1
    12    18    19    1
    13    19    21    1
    14    21    22    2
    15    22    23    1
    16    23    24    2
    17    24    25    1
    18    25    26    1
    19    26    27    2
    20    27    30    1
    21    30    31    1
    22    30    32    1
    23    30    33    1
    24    27    28    1
    25    28    29    2
    26     7     8    1
    27    13    14    1
    28    14    15    1
    29    15    10    1
    30     8     5    1
    31    29    21    1
    32    29    24    1
    33     9    16    1
    34     9    17    1
    35     1     4    1
    36    19    20    1
@<TRIPOS>MOLECULE
*****
 33 36 0 0 0
SMALL
GASTEIGER

@<TRIPOS>ATOM
      1 N         141.4768  140.1588  162.4703 N.am    1  UNL1       -0.2999
      2 C         140.3180  139.6989  161.6362 C.2     1  UNL1        0.2701
      3 O         139.0374  139.2818  162.2965 O.2     1  UNL1       -0.2706
      4 H         142.3173  140.4326  162.0369 H       1  UNL1        0.1496
      5 N         141.1826  140.2619  166.0782 N.3     1  UNL1       -0.2711
      6 C         141.3579  139.1755  165.0589 C.3     1  UNL1        0.0933
      7 C         141.3549  140.2016  163.9647 C.3     1  UNL1        0.1035
      8 C         141.1796  141.2879  164.9840 C.3     1  UNL1        0.0933
      9 N         140.6952  140.4329  172.0559 N.3     1  UNL1       -0.3222
     10 C         140.8169  140.3902  170.5615 C.3     1  UNL1        0.0509
     11 C         139.5841  140.4147  169.7074 C.3     1  UNL1        0.0169
     12 C         139.7060  140.3720  168.2130 C.3     1  UNL1        0.0173
     13 C         141.0607  140.3047  167.5726 C.3     1  UNL1        0.0577
     14 C         142.2936  140.2801  168.4267 C.3     1  UNL1        0.0173
     15 C         142.1717  140.3229  169.9210 C.3     1  UNL1        0.0169
     16 H         139.7098  140.4766  172.3156 H       1  UNL1        0.1188
     17 H         141.1778  141.2576  172.4129 H       1  UNL1        0.1188
     18 C         140.4399  139.6562  160.1418 C.3     1  UNL1        0.2850
     19 N         139.7349  140.6800  159.3022 N.pl3   1  UNL1       -0.2091
     20 H         138.9651  140.4166  158.7479 H       1  UNL1        0.2928
     21 C         140.2029  142.1051  159.3071 C.2     1  UNL1        0.3493
     22 N         141.0690  142.7523  158.2673 N.2     1  UNL1        0.0798
     23 N         141.2883  144.1804  158.6703 N.2     1  UNL1       -0.0381
     24 C         140.5578  144.4159  159.9591 C.2     1  UNL1        0.1169
     25 C         140.4168  145.6325  160.8250 C.3     1  UNL1        0.0759
     26 C         139.6050  145.5664  162.0846 C.2     1  UNL1       -0.0158
     27 C         138.9342  144.2838  162.4782 C.2     1  UNL1        0.0678
     28 C         139.0752  143.0672  161.6122 C.2     1  UNL1        0.0123
     29 C         139.8870  143.1333  160.3526 C.2     1  UNL1        0.1019
     30 C         138.1223  144.2179  163.7378 C.3     1  UNL1        0.4183
     31 F         137.3105  144.1519  164.9974 F       1  UNL1       -0.1659
     32 F         137.2338  143.1846  163.1111 F       1  UNL1       -0.1659
     33 F         139.0108  145.2512  164.3645 F       1  UNL1       -0.1659
@<TRIPOS>BOND
     1    10     9    1
     2    10    11    1
     3    11    12    1
     4    12    13    1
     5    13     5    1
     6     5     6    1
     7     6     7    1
     8     7     1    1
     9     1     2   am
    10     2     3    2
    11     2    18    1
    12    18    19    1
    13    19    21    1
    14    21    22    2
    15    22    23    1
    16    23    24    2
    17    24    25    1
    18    25    26    1
    19    26    27    2
    20    27    30    1
    21    30    31    1
    22    30    32    1
    23    30    33    1
    24    27    28    1
    25    28    29    2
    26     7     8    1
    27    13    14    1
    28    14    15    1
    29    15    10    1
    30     8     5    1
    31    29    21    1
    32    29    24    1
    33     9    16    1
    34     9    17    1
    35     1     4    1
    36    19    20    1
