@<TRIPOS>MOLECULE
*****
 33 36 0 0 0
SMALL
GASTEIGER

@<TRIPOS>ATOM
      1 C         141.4984  138.7796  164.4849 C.3     1  UNL1        0.0595
      2 C         141.0388  137.4223  164.0417 C.3     1  UNL1        0.0174
      3 C         141.9022  142.1091  161.4848 C.3     1  UNL1        0.0905
      4 C         140.6396  141.3014  161.5433 C.3     1  UNL1        0.0400
      5 C         140.5051  140.1915  162.5433 C.3     1  UNL1        0.0740
      6 N         141.6330  139.8895  163.4848 N.3     1  UNL1       -0.2738
      7 C         142.8956  140.6973  163.4263 C.3     1  UNL1        0.0740
      8 C         143.0301  141.8071  162.4263 C.3     1  UNL1        0.0400
      9 C         143.1625  141.8468  158.4860 C.3     1  UNL1        0.0738
     10 C         142.6161  143.0984  159.1063 C.ar    1  UNL1        0.1433
     11 N         142.5531  144.4492  158.4572 N.ar    1  UNL1       -0.1337
     12 N         141.9348  145.4047  159.4344 N.ar    1  UNL1       -0.1337
     13 C         141.6157  144.6444  160.6874 C.ar    1  UNL1        0.1425
     14 N         142.0368  143.2190  160.4847 N.ar    1  UNL1       -0.3039
     15 C         140.9861  145.2101  161.9258 C.3     1  UNL1        0.0588
     16 C         139.6525  145.8918  161.8448 C.3     1  UNL1        0.0080
     17 C         141.6902  145.0941  163.2452 C.3     1  UNL1        0.0080
     18 C         141.8234  139.0271  165.9282 C.3     1  UNL1        0.0401
     19 C         141.0179  140.0143  166.7198 C.3     1  UNL1        0.0954
     20 C         141.2956  140.2089  168.1810 C.ar    1  UNL1       -0.0045
     21 C         142.6975  140.4623  168.6507 C.ar    1  UNL1       -0.0027
     22 C         142.9752  140.6569  170.1119 C.ar    1  UNL1       -0.0003
     23 C         141.8511  140.5981  171.1033 C.ar    1  UNL1       -0.0000
     24 C         140.4493  140.3447  170.6335 C.ar    1  UNL1       -0.0003
     25 C         140.1716  140.1501  169.1724 C.ar    1  UNL1       -0.0027
     26 N         139.9347  140.8070  166.0502 N.am    1  UNL1       -0.3022
     27 C         140.1764  142.2388  165.6740 C.2     1  UNL1        0.2222
     28 O         141.5013  142.8779  165.9673 O.2     1  UNL1       -0.2751
     29 H         139.0651  140.3875  165.8576 H       1  UNL1        0.1497
     30 C         139.0932  143.0314  165.0044 C.3     1  UNL1        0.0765
     31 C         138.5727  144.4327  165.1290 C.3     1  UNL1        0.0091
     32 C         137.5613  144.1523  164.0574 C.3     1  UNL1        0.0010
     33 C         138.0818  142.7511  163.9327 C.3     1  UNL1        0.0091
@<TRIPOS>BOND
     1     9    10    1
     2    10    11   ar
     3    11    12   ar
     4    12    13   ar
     5    13    15    1
     6    15    16    1
     7    15    17    1
     8    13    14   ar
     9    14     3    1
    10     3     4    1
    11     4     5    1
    12     5     6    1
    13     6     1    1
    14     1     2    1
    15     1    18    1
    16    19    18    1
    17    19    26    1
    18    26    27   am
    19    27    28    2
    20    27    30    1
    21    30    31    1
    22    31    32    1
    23    32    33    1
    24    19    20    1
    25    20    21   ar
    26    21    22   ar
    27    22    23   ar
    28    23    24   ar
    29    24    25   ar
    30     6     7    1
    31     7     8    1
    32    14    10   ar
    33     8     3    1
    34    33    30    1
    35    25    20   ar
    36    26    29    1
@<TRIPOS>MOLECULE
*****
 33 36 0 0 0
SMALL
GASTEIGER

@<TRIPOS>ATOM
      1 C         144.5426  141.8511  164.1652 C.3     1  UNL1        0.0595
      2 C         145.7776  141.0216  163.9738 C.3     1  UNL1        0.0174
      3 C         141.5885  140.7783  167.3859 C.3     1  UNL1        0.0905
      4 C         141.9432  142.2152  167.1420 C.3     1  UNL1        0.0400
      5 C         142.9279  142.5728  166.0684 C.3     1  UNL1        0.0740
      6 N         143.5579  141.4935  165.2388 N.3     1  UNL1       -0.2738
      7 C         143.2032  140.0566  165.4827 C.3     1  UNL1        0.0740
      8 C         142.2185  139.6991  166.5563 C.3     1  UNL1        0.0400
      9 C         142.0758  141.0442  170.6017 C.3     1  UNL1        0.0738
     10 C         140.8278  140.5429  169.9376 C.ar    1  UNL1        0.1433
     11 N         139.5847  140.0758  170.6350 N.ar    1  UNL1       -0.1337
     12 N         138.5923  139.6649  169.5879 N.ar    1  UNL1       -0.1337
     13 C         139.2222  139.8780  168.2433 C.ar    1  UNL1        0.1425
     14 N         140.6038  140.4207  168.4595 N.ar    1  UNL1       -0.3039
     15 C         138.5827  139.5978  166.9158 C.3     1  UNL1        0.0588
     16 C         138.7238  140.5819  165.7926 C.3     1  UNL1        0.0080
     17 C         137.8022  138.3333  166.7113 C.3     1  UNL1        0.0080
     18 C         144.2922  143.0383  163.2832 C.3     1  UNL1        0.0401
     19 C         143.1057  143.0540  162.3657 C.3     1  UNL1        0.0954
     20 C         143.3071  143.0699  160.8794 C.ar    1  UNL1       -0.0045
     21 C         144.5569  142.4907  160.2856 C.ar    1  UNL1       -0.0027
     22 C         144.7583  142.5066  158.7993 C.ar    1  UNL1       -0.0003
     23 C         143.7099  143.1018  157.9067 C.ar    1  UNL1       -0.0000
     24 C         142.4601  143.6810  158.5005 C.ar    1  UNL1       -0.0003
     25 C         142.2588  143.6651  159.9868 C.ar    1  UNL1       -0.0027
     26 N         141.7177  143.0538  162.9345 N.am    1  UNL1       -0.3022
     27 C         141.1353  144.3188  163.4917 C.2     1  UNL1        0.2222
     28 O         141.9409  145.5841  163.4801 O.2     1  UNL1       -0.2751
     29 H         141.1890  142.2234  162.9421 H       1  UNL1        0.1497
     30 C         139.7474  144.3185  164.0605 C.3     1  UNL1        0.0765
     31 C         139.1680  144.3191  165.4441 C.3     1  UNL1        0.0091
     32 C         137.7845  144.3182  164.8649 C.3     1  UNL1        0.0010
     33 C         138.3637  144.3176  163.4813 C.3     1  UNL1        0.0091
@<TRIPOS>BOND
     1     9    10    1
     2    10    11   ar
     3    11    12   ar
     4    12    13   ar
     5    13    15    1
     6    15    16    1
     7    15    17    1
     8    13    14   ar
     9    14     3    1
    10     3     4    1
    11     4     5    1
    12     5     6    1
    13     6     1    1
    14     1     2    1
    15     1    18    1
    16    19    18    1
    17    19    26    1
    18    26    27   am
    19    27    28    2
    20    27    30    1
    21    30    31    1
    22    31    32    1
    23    32    33    1
    24    19    20    1
    25    20    21   ar
    26    21    22   ar
    27    22    23   ar
    28    23    24   ar
    29    24    25   ar
    30     6     7    1
    31     7     8    1
    32    14    10   ar
    33     8     3    1
    34    33    30    1
    35    25    20   ar
    36    26    29    1
@<TRIPOS>MOLECULE
*****
 33 36 0 0 0
SMALL
GASTEIGER

@<TRIPOS>ATOM
      1 C         143.4894  143.6272  163.7209 C.3     1  UNL1        0.0595
      2 C         143.6130  145.1194  163.6303 C.3     1  UNL1        0.0174
      3 C         140.9905  141.7696  166.9696 C.3     1  UNL1        0.0905
      4 C         142.4583  141.4711  166.8892 C.3     1  UNL1        0.0400
      5 C         143.2912  142.0903  165.8063 C.3     1  UNL1        0.0740
      6 N         142.6564  143.0080  164.8038 N.3     1  UNL1       -0.2738
      7 C         141.1886  143.3064  164.8843 C.3     1  UNL1        0.0740
      8 C         140.3557  142.6872  165.9672 C.3     1  UNL1        0.0400
      9 C         138.9236  139.2702  166.6077 C.3     1  UNL1        0.0738
     10 C         139.2074  140.0015  167.8862 C.ar    1  UNL1        0.1433
     11 N         138.5911  139.7124  169.2228 N.ar    1  UNL1       -0.1337
     12 N         139.1602  140.6826  170.2153 N.ar    1  UNL1       -0.1337
     13 C         140.1282  141.5712  169.4920 C.ar    1  UNL1        0.1425
     14 N         140.1574  141.1503  168.0526 N.ar    1  UNL1       -0.3039
     15 C         140.9269  142.6852  170.1013 C.3     1  UNL1        0.0588
     16 C         140.4456  144.1014  169.9895 C.3     1  UNL1        0.0080
     17 C         142.2070  142.3829  170.8224 C.3     1  UNL1        0.0080
     18 C         144.1988  142.7543  162.7286 C.3     1  UNL1        0.0401
     19 C         143.4152  141.8129  161.8628 C.3     1  UNL1        0.0954
     20 C         143.5042  141.9176  160.3691 C.ar    1  UNL1       -0.0045
     21 C         143.2198  143.2248  159.6905 C.ar    1  UNL1       -0.0027
     22 C         143.3089  143.3295  158.1969 C.ar    1  UNL1       -0.0003
     23 C         143.6823  142.1269  157.3817 C.ar    1  UNL1       -0.0000
     24 C         143.9666  140.8197  158.0602 C.ar    1  UNL1       -0.0003
     25 C         143.8776  140.7151  159.5539 C.ar    1  UNL1       -0.0027
     26 N         142.5424  140.7669  162.4906 N.am    1  UNL1       -0.3022
     27 C         143.1566  139.5282  163.0724 C.2     1  UNL1        0.2222
     28 O         144.6434  139.3355  163.0263 O.2     1  UNL1       -0.2751
     29 H         141.5666  140.8933  162.5209 H       1  UNL1        0.1497
     30 C         142.2838  138.4822  163.7002 C.3     1  UNL1        0.0765
     31 C         141.3032  137.4705  163.1856 C.3     1  UNL1        0.0091
     32 C         141.0496  137.0029  164.5881 C.3     1  UNL1        0.0010
     33 C         142.0302  138.0146  165.1027 C.3     1  UNL1        0.0091
@<TRIPOS>BOND
     1     9    10    1
     2    10    11   ar
     3    11    12   ar
     4    12    13   ar
     5    13    15    1
     6    15    16    1
     7    15    17    1
     8    13    14   ar
     9    14     3    1
    10     3     4    1
    11     4     5    1
    12     5     6    1
    13     6     1    1
    14     1     2    1
    15     1    18    1
    16    19    18    1
    17    19    26    1
    18    26    27   am
    19    27    28    2
    20    27    30    1
    21    30    31    1
    22    31    32    1
    23    32    33    1
    24    19    20    1
    25    20    21   ar
    26    21    22   ar
    27    22    23   ar
    28    23    24   ar
    29    24    25   ar
    30     6     7    1
    31     7     8    1
    32    14    10   ar
    33     8     3    1
    34    33    30    1
    35    25    20   ar
    36    26    29    1
@<TRIPOS>MOLECULE
*****
 33 36 0 0 0
SMALL
GASTEIGER

@<TRIPOS>ATOM
      1 C         142.3752  144.6415  163.2962 C.3     1  UNL1        0.0595
      2 C         143.8319  144.9965  163.2498 C.3     1  UNL1        0.0174
      3 C         140.7215  142.3805  166.8180 C.3     1  UNL1        0.0905
      4 C         142.1766  142.2692  166.4716 C.3     1  UNL1        0.0400
      5 C         142.7279  143.0229  165.2977 C.3     1  UNL1        0.0740
      6 N         141.8239  143.8878  164.4702 N.3     1  UNL1       -0.2738
      7 C         140.3688  143.9991  164.8166 C.3     1  UNL1        0.0740
      8 C         139.8175  143.2455  165.9905 C.3     1  UNL1        0.0400
      9 C         140.7219  143.3940  169.9200 C.3     1  UNL1        0.0738
     10 C         140.1704  142.0927  169.4177 C.ar    1  UNL1        0.1433
     11 N         139.5222  141.0287  170.2531 N.ar    1  UNL1       -0.1337
     12 N         139.1213  139.9052  169.3435 N.ar    1  UNL1       -0.1337
     13 C         139.5218  140.2749  167.9461 C.ar    1  UNL1        0.1425
     14 N         140.1701  141.6268  167.9919 N.ar    1  UNL1       -0.3039
     15 C         139.3110  139.4394  166.7183 C.3     1  UNL1        0.0588
     16 C         140.4576  139.1668  165.7905 C.3     1  UNL1        0.0080
     17 C         137.9534  138.8763  166.4183 C.3     1  UNL1        0.0080
     18 C         141.4698  145.0403  162.1687 C.3     1  UNL1        0.0401
     19 C         141.1428  144.0557  161.0854 C.3     1  UNL1        0.0954
     20 C         141.2749  144.4538  159.6452 C.ar    1  UNL1       -0.0045
     21 C         140.3417  145.4720  159.0599 C.ar    1  UNL1       -0.0027
     22 C         140.4738  145.8701  157.6197 C.ar    1  UNL1       -0.0003
     23 C         141.5392  145.2500  156.7649 C.ar    1  UNL1       -0.0000
     24 C         142.4723  144.2320  157.3503 C.ar    1  UNL1       -0.0003
     25 C         142.3402  143.8339  158.7904 C.ar    1  UNL1       -0.0027
     26 N         140.6835  142.6730  161.4422 N.am    1  UNL1       -0.3022
     27 C         139.2278  142.4057  161.6856 C.2     1  UNL1        0.2222
     28 O         138.2312  143.5210  161.5723 O.2     1  UNL1       -0.2751
     29 H         141.3376  141.9410  161.5166 H       1  UNL1        0.1497
     30 C         138.7686  141.0230  162.0424 C.3     1  UNL1        0.0765
     31 C         139.0237  139.6477  161.5005 C.3     1  UNL1        0.0091
     32 C         138.1193  139.0675  162.5470 C.3     1  UNL1        0.0010
     33 C         137.8641  140.4427  163.0889 C.3     1  UNL1        0.0091
@<TRIPOS>BOND
     1     9    10    1
     2    10    11   ar
     3    11    12   ar
     4    12    13   ar
     5    13    15    1
     6    15    16    1
     7    15    17    1
     8    13    14   ar
     9    14     3    1
    10     3     4    1
    11     4     5    1
    12     5     6    1
    13     6     1    1
    14     1     2    1
    15     1    18    1
    16    19    18    1
    17    19    26    1
    18    26    27   am
    19    27    28    2
    20    27    30    1
    21    30    31    1
    22    31    32    1
    23    32    33    1
    24    19    20    1
    25    20    21   ar
    26    21    22   ar
    27    22    23   ar
    28    23    24   ar
    29    24    25   ar
    30     6     7    1
    31     7     8    1
    32    14    10   ar
    33     8     3    1
    34    33    30    1
    35    25    20   ar
    36    26    29    1
@<TRIPOS>MOLECULE
*****
 33 36 0 0 0
SMALL
GASTEIGER

@<TRIPOS>ATOM
      1 C         141.8435  144.7524  163.2665 C.3     1  UNL1        0.0595
      2 C         143.2999  144.8656  162.9259 C.3     1  UNL1        0.0174
      3 C         140.5560  142.4268  166.8975 C.3     1  UNL1        0.0905
      4 C         141.9473  142.2683  166.3598 C.3     1  UNL1        0.0400
      5 C         142.3764  143.0435  165.1495 C.3     1  UNL1        0.0740
      6 N         141.4143  143.9772  164.4769 N.3     1  UNL1       -0.2738
      7 C         140.0230  144.1357  165.0145 C.3     1  UNL1        0.0740
      8 C         139.5938  143.3606  166.2248 C.3     1  UNL1        0.0400
      9 C         140.7806  143.4276  169.9955 C.3     1  UNL1        0.0738
     10 C         140.2300  142.1116  169.5318 C.ar    1  UNL1        0.1433
     11 N         139.6860  141.0246  170.4107 N.ar    1  UNL1       -0.1337
     12 N         139.2466  139.8927  169.5299 N.ar    1  UNL1       -0.1337
     13 C         139.5190  140.2803  168.1066 C.ar    1  UNL1        0.1425
     14 N         140.1268  141.6516  168.1078 N.ar    1  UNL1       -0.3039
     15 C         139.2337  139.4434  166.8950 C.3     1  UNL1        0.0588
     16 C         137.8688  138.8543  166.6947 C.3     1  UNL1        0.0080
     17 C         140.3133  139.1954  165.8835 C.3     1  UNL1        0.0080
     18 C         140.8162  145.4145  162.3968 C.3     1  UNL1        0.0401
     19 C         140.0910  144.6177  161.3532 C.3     1  UNL1        0.0954
     20 C         139.5198  143.2742  161.6980 C.ar    1  UNL1       -0.0045
     21 C         138.1065  143.1635  162.1885 C.ar    1  UNL1       -0.0027
     22 C         137.5354  141.8200  162.5332 C.ar    1  UNL1       -0.0003
     23 C         138.3775  140.5872  162.3875 C.ar    1  UNL1       -0.0000
     24 C         139.7907  140.6980  161.8970 C.ar    1  UNL1       -0.0003
     25 C         140.3619  142.0414  161.5523 C.ar    1  UNL1       -0.0027
     26 N         139.9369  145.1643  159.9649 N.am    1  UNL1       -0.3022
     27 C         141.0910  145.1172  159.0079 C.2     1  UNL1        0.2222
     28 O         142.3993  144.5236  159.4393 O.2     1  UNL1       -0.2751
     29 H         139.0783  145.5539  159.6817 H       1  UNL1        0.1497
     30 C         140.9369  145.6638  157.6196 C.3     1  UNL1        0.0765
     31 C         141.7740  145.6494  156.3750 C.3     1  UNL1        0.0091
     32 C         140.7190  146.4368  155.6562 C.3     1  UNL1        0.0010
     33 C         139.8818  146.4513  156.9008 C.3     1  UNL1        0.0091
@<TRIPOS>BOND
     1     9    10    1
     2    10    11   ar
     3    11    12   ar
     4    12    13   ar
     5    13    15    1
     6    15    16    1
     7    15    17    1
     8    13    14   ar
     9    14     3    1
    10     3     4    1
    11     4     5    1
    12     5     6    1
    13     6     1    1
    14     1     2    1
    15     1    18    1
    16    19    18    1
    17    19    26    1
    18    26    27   am
    19    27    28    2
    20    27    30    1
    21    30    31    1
    22    31    32    1
    23    32    33    1
    24    19    20    1
    25    20    21   ar
    26    21    22   ar
    27    22    23   ar
    28    23    24   ar
    29    24    25   ar
    30     6     7    1
    31     7     8    1
    32    14    10   ar
    33     8     3    1
    34    33    30    1
    35    25    20   ar
    36    26    29    1
@<TRIPOS>MOLECULE
*****
 33 36 0 0 0
SMALL
GASTEIGER

@<TRIPOS>ATOM
      1 C         139.3333  139.1582  165.2268 C.3     1  UNL1        0.0595
      2 C         138.9425  137.7729  164.8048 C.3     1  UNL1        0.0174
      3 C         140.2351  142.2865  162.1203 C.3     1  UNL1        0.0905
      4 C         140.9386  140.9624  162.0775 C.3     1  UNL1        0.0400
      5 C         140.6380  139.9197  163.1130 C.3     1  UNL1        0.0740
      6 N         139.6339  140.2010  164.1913 N.3     1  UNL1       -0.2738
      7 C         138.9305  141.5251  164.2341 C.3     1  UNL1        0.0740
      8 C         139.2311  142.5679  163.1986 C.3     1  UNL1        0.0400
      9 C         138.6828  142.6681  159.2752 C.3     1  UNL1        0.0738
     10 C         139.8222  143.5047  159.7770 C.ar    1  UNL1        0.1433
     11 N         140.4482  144.6636  159.0592 N.ar    1  UNL1       -0.1337
     12 N         141.5486  145.2044  159.9234 N.ar    1  UNL1       -0.1337
     13 C         141.6027  144.3798  161.1752 C.ar    1  UNL1        0.1425
     14 N         140.5357  143.3293  161.0847 N.ar    1  UNL1       -0.3039
     15 C         142.5563  144.5719  162.3169 C.3     1  UNL1        0.0588
     16 C         143.9636  144.0637  162.2124 C.3     1  UNL1        0.0080
     17 C         142.1025  145.2723  163.5634 C.3     1  UNL1        0.0080
     18 C         139.4235  139.5008  166.6844 C.3     1  UNL1        0.0401
     19 C         140.6815  140.1024  167.2370 C.3     1  UNL1        0.0954
     20 C         140.6666  140.7697  168.5803 C.ar    1  UNL1       -0.0045
     21 C         141.0534  139.9964  169.8061 C.ar    1  UNL1       -0.0027
     22 C         141.0385  140.6637  171.1495 C.ar    1  UNL1       -0.0003
     23 C         140.6369  142.1042  171.2670 C.ar    1  UNL1       -0.0000
     24 C         140.2502  142.8773  170.0412 C.ar    1  UNL1       -0.0003
     25 C         140.2651  142.2101  168.6978 C.ar    1  UNL1       -0.0027
     26 N         141.9545  140.0367  166.4462 N.am    1  UNL1       -0.3022
     27 C         142.4807  141.2670  165.7684 C.2     1  UNL1        0.2222
     28 O         141.7339  142.5630  165.8812 O.2     1  UNL1       -0.2751
     29 H         142.4447  139.1861  166.3721 H       1  UNL1        0.1497
     30 C         143.7537  141.2013  164.9777 C.3     1  UNL1        0.0765
     31 C         144.8800  142.1522  164.6997 C.3     1  UNL1        0.0091
     32 C         145.5539  141.1084  163.8595 C.3     1  UNL1        0.0010
     33 C         144.4276  140.1574  164.1374 C.3     1  UNL1        0.0091
@<TRIPOS>BOND
     1     9    10    1
     2    10    11   ar
     3    11    12   ar
     4    12    13   ar
     5    13    15    1
     6    15    16    1
     7    15    17    1
     8    13    14   ar
     9    14     3    1
    10     3     4    1
    11     4     5    1
    12     5     6    1
    13     6     1    1
    14     1     2    1
    15     1    18    1
    16    19    18    1
    17    19    26    1
    18    26    27   am
    19    27    28    2
    20    27    30    1
    21    30    31    1
    22    31    32    1
    23    32    33    1
    24    19    20    1
    25    20    21   ar
    26    21    22   ar
    27    22    23   ar
    28    23    24   ar
    29    24    25   ar
    30     6     7    1
    31     7     8    1
    32    14    10   ar
    33     8     3    1
    34    33    30    1
    35    25    20   ar
    36    26    29    1
@<TRIPOS>MOLECULE
*****
 33 36 0 0 0
SMALL
GASTEIGER

@<TRIPOS>ATOM
      1 C         139.2160  143.2652  164.4671 C.3     1  UNL1        0.0595
      2 C         137.7737  143.6243  164.2653 C.3     1  UNL1        0.0174
      3 C         141.6209  141.6026  161.0463 C.3     1  UNL1        0.0905
      4 C         142.0493  142.8747  161.7157 C.3     1  UNL1        0.0400
      5 C         141.2477  143.4289  162.8560 C.3     1  UNL1        0.0740
      6 N         140.0177  142.7110  163.3268 N.3     1  UNL1       -0.2738
      7 C         139.5893  141.4388  162.6574 C.3     1  UNL1        0.0740
      8 C         140.3909  140.8847  161.5171 C.3     1  UNL1        0.0400
      9 C         141.3234  142.4407  157.9064 C.3     1  UNL1        0.0738
     10 C         142.2858  141.4336  158.4627 C.ar    1  UNL1        0.1433
     11 N         143.2803  140.6349  157.6735 N.ar    1  UNL1       -0.1337
     12 N         144.0318  139.7559  158.6290 N.ar    1  UNL1       -0.1337
     13 C         143.5016  140.0115  160.0087 C.ar    1  UNL1        0.1425
     14 N         142.4225  141.0483  159.9059 N.ar    1  UNL1       -0.3039
     15 C         143.9686  139.3469  161.2697 C.3     1  UNL1        0.0588
     16 C         143.8547  137.8588  161.4198 C.3     1  UNL1        0.0080
     17 C         144.5494  140.1704  162.3808 C.3     1  UNL1        0.0080
     18 C         139.8568  143.4604  165.8093 C.3     1  UNL1        0.0401
     19 C         140.7658  142.4055  166.3669 C.3     1  UNL1        0.0954
     20 C         141.3755  142.5829  167.7259 C.ar    1  UNL1       -0.0045
     21 C         140.5627  143.1695  168.8418 C.ar    1  UNL1       -0.0027
     22 C         141.1725  143.3469  170.2008 C.ar    1  UNL1       -0.0003
     23 C         142.5950  142.9375  170.4438 C.ar    1  UNL1       -0.0000
     24 C         143.4077  142.3509  169.3279 C.ar    1  UNL1       -0.0003
     25 C         142.7979  142.1735  167.9689 C.ar    1  UNL1       -0.0027
     26 N         141.0651  141.1733  165.5656 N.am    1  UNL1       -0.3022
     27 C         140.3648  139.8850  165.8811 C.2     1  UNL1        0.2222
     28 O         139.3651  139.8288  166.9981 O.2     1  UNL1       -0.2751
     29 H         141.7212  141.2102  164.8325 H       1  UNL1        0.1497
     30 C         140.6641  138.6528  165.0798 C.3     1  UNL1        0.0765
     31 C         141.9130  137.9219  164.6846 C.3     1  UNL1        0.0091
     32 C         141.0875  136.9103  163.9465 C.3     1  UNL1        0.0010
     33 C         139.8386  137.6411  164.3417 C.3     1  UNL1        0.0091
@<TRIPOS>BOND
     1     9    10    1
     2    10    11   ar
     3    11    12   ar
     4    12    13   ar
     5    13    15    1
     6    15    16    1
     7    15    17    1
     8    13    14   ar
     9    14     3    1
    10     3     4    1
    11     4     5    1
    12     5     6    1
    13     6     1    1
    14     1     2    1
    15     1    18    1
    16    19    18    1
    17    19    26    1
    18    26    27   am
    19    27    28    2
    20    27    30    1
    21    30    31    1
    22    31    32    1
    23    32    33    1
    24    19    20    1
    25    20    21   ar
    26    21    22   ar
    27    22    23   ar
    28    23    24   ar
    29    24    25   ar
    30     6     7    1
    31     7     8    1
    32    14    10   ar
    33     8     3    1
    34    33    30    1
    35    25    20   ar
    36    26    29    1
@<TRIPOS>MOLECULE
*****
 33 36 0 0 0
SMALL
GASTEIGER

@<TRIPOS>ATOM
      1 C         142.2897  144.2335  163.0917 C.3     1  UNL1        0.0595
      2 C         143.7582  144.5188  162.9833 C.3     1  UNL1        0.0174
      3 C         140.6711  142.1127  166.7155 C.3     1  UNL1        0.0905
      4 C         139.8939  143.2349  166.0939 C.3     1  UNL1        0.0400
      5 C         140.4334  143.9418  164.8859 C.3     1  UNL1        0.0740
      6 N         141.7502  143.5265  164.2997 N.3     1  UNL1       -0.2738
      7 C         142.5274  142.4043  164.9213 C.3     1  UNL1        0.0740
      8 C         141.9878  141.6974  166.1293 C.3     1  UNL1        0.0400
      9 C         138.9163  139.3612  166.7036 C.3     1  UNL1        0.0738
     10 C         139.3250  140.1411  167.9180 C.ar    1  UNL1        0.1433
     11 N         138.9989  139.7931  169.3402 N.ar    1  UNL1       -0.1337
     12 N         139.6039  140.8427  170.2247 N.ar    1  UNL1       -0.1337
     13 C         140.3039  141.8394  169.3491 C.ar    1  UNL1        0.1425
     14 N         140.1316  141.4057  167.9236 N.ar    1  UNL1       -0.3039
     15 C         141.0460  143.0561  169.8170 C.3     1  UNL1        0.0588
     16 C         140.3100  144.3439  170.0401 C.3     1  UNL1        0.0080
     17 C         142.5242  142.9850  170.0619 C.3     1  UNL1        0.0080
     18 C         141.3605  144.6550  161.9921 C.3     1  UNL1        0.0401
     19 C         140.8240  143.6356  161.0315 C.3     1  UNL1        0.0954
     20 C         140.4596  144.0407  159.6340 C.ar    1  UNL1       -0.0045
     21 C         140.7342  145.4380  159.1625 C.ar    1  UNL1       -0.0027
     22 C         140.3698  145.8431  157.7649 C.ar    1  UNL1       -0.0003
     23 C         139.7309  144.8509  156.8389 C.ar    1  UNL1       -0.0000
     24 C         139.4564  143.4537  157.3105 C.ar    1  UNL1       -0.0003
     25 C         139.8207  143.0486  158.7080 C.ar    1  UNL1       -0.0027
     26 N         140.6517  142.2110  161.4685 N.am    1  UNL1       -0.3022
     27 C         139.3556  141.7648  162.0775 C.2     1  UNL1        0.2222
     28 O         138.2317  142.7432  162.2497 O.2     1  UNL1       -0.2751
     29 H         141.3893  141.5688  161.3555 H       1  UNL1        0.1497
     30 C         139.1834  140.3402  162.5144 C.3     1  UNL1        0.0765
     31 C         138.0460  139.3623  162.5193 C.3     1  UNL1        0.0091
     32 C         138.9398  138.3255  163.1323 C.3     1  UNL1        0.0010
     33 C         140.0773  139.3034  163.1275 C.3     1  UNL1        0.0091
@<TRIPOS>BOND
     1     9    10    1
     2    10    11   ar
     3    11    12   ar
     4    12    13   ar
     5    13    15    1
     6    15    16    1
     7    15    17    1
     8    13    14   ar
     9    14     3    1
    10     3     4    1
    11     4     5    1
    12     5     6    1
    13     6     1    1
    14     1     2    1
    15     1    18    1
    16    19    18    1
    17    19    26    1
    18    26    27   am
    19    27    28    2
    20    27    30    1
    21    30    31    1
    22    31    32    1
    23    32    33    1
    24    19    20    1
    25    20    21   ar
    26    21    22   ar
    27    22    23   ar
    28    23    24   ar
    29    24    25   ar
    30     6     7    1
    31     7     8    1
    32    14    10   ar
    33     8     3    1
    34    33    30    1
    35    25    20   ar
    36    26    29    1
@<TRIPOS>MOLECULE
*****
 33 36 0 0 0
SMALL
GASTEIGER

@<TRIPOS>ATOM
      1 C         143.5560  143.9387  163.7493 C.3     1  UNL1        0.0595
      2 C         143.7238  145.4119  163.9760 C.3     1  UNL1        0.0174
      3 C         140.8703  141.5385  166.4466 C.3     1  UNL1        0.0905
      4 C         140.3416  142.7611  165.7569 C.3     1  UNL1        0.0400
      5 C         141.2368  143.5611  164.8578 C.3     1  UNL1        0.0740
      6 N         142.6608  143.1386  164.6484 N.3     1  UNL1       -0.2738
      7 C         143.1895  141.9160  165.3381 C.3     1  UNL1        0.0740
      8 C         142.2942  141.1160  166.2372 C.3     1  UNL1        0.0400
      9 C         140.6477  141.8347  169.6889 C.3     1  UNL1        0.0738
     10 C         139.8727  140.8745  168.8360 C.ar    1  UNL1        0.1433
     11 N         138.8594  139.8820  169.3237 N.ar    1  UNL1       -0.1337
     12 N         138.3353  139.1323  168.1348 N.ar    1  UNL1       -0.1337
     13 C         139.0248  139.6616  166.9124 C.ar    1  UNL1        0.1425
     14 N         139.9750  140.7384  167.3458 N.ar    1  UNL1       -0.3039
     15 C         138.8031  139.1959  165.5039 C.3     1  UNL1        0.0588
     16 C         138.1326  140.0994  164.5119 C.3     1  UNL1        0.0080
     17 C         139.2518  137.8266  165.0872 C.3     1  UNL1        0.0080
     18 C         144.2835  143.2655  162.6234 C.3     1  UNL1        0.0401
     19 C         143.5130  142.5427  161.5585 C.3     1  UNL1        0.0954
     20 C         143.1026  141.1152  161.7680 C.ar    1  UNL1       -0.0045
     21 C         141.6916  140.7903  162.1598 C.ar    1  UNL1       -0.0027
     22 C         141.2812  139.3628  162.3692 C.ar    1  UNL1       -0.0003
     23 C         142.2818  138.2602  162.1868 C.ar    1  UNL1       -0.0000
     24 C         143.6928  138.5852  161.7950 C.ar    1  UNL1       -0.0003
     25 C         144.1032  140.0127  161.5856 C.ar    1  UNL1       -0.0027
     26 N         143.1529  143.2474  160.2842 N.am    1  UNL1       -0.3022
     27 C         141.8998  144.0683  160.2094 C.2     1  UNL1        0.2222
     28 O         141.0067  144.1847  161.4090 O.2     1  UNL1       -0.2751
     29 H         143.7391  143.1710  159.4969 H       1  UNL1        0.1497
     30 C         141.5398  144.7729  158.9352 C.3     1  UNL1        0.0765
     31 C         142.2252  145.0050  157.6212 C.3     1  UNL1        0.0091
     32 C         141.0306  145.7694  157.1330 C.3     1  UNL1        0.0010
     33 C         140.3451  145.5374  158.4469 C.3     1  UNL1        0.0091
@<TRIPOS>BOND
     1     9    10    1
     2    10    11   ar
     3    11    12   ar
     4    12    13   ar
     5    13    15    1
     6    15    16    1
     7    15    17    1
     8    13    14   ar
     9    14     3    1
    10     3     4    1
    11     4     5    1
    12     5     6    1
    13     6     1    1
    14     1     2    1
    15     1    18    1
    16    19    18    1
    17    19    26    1
    18    26    27   am
    19    27    28    2
    20    27    30    1
    21    30    31    1
    22    31    32    1
    23    32    33    1
    24    19    20    1
    25    20    21   ar
    26    21    22   ar
    27    22    23   ar
    28    23    24   ar
    29    24    25   ar
    30     6     7    1
    31     7     8    1
    32    14    10   ar
    33     8     3    1
    34    33    30    1
    35    25    20   ar
    36    26    29    1
