@<TRIPOS>MOLECULE
*****
 31 34 0 0 0
SMALL
GASTEIGER

@<TRIPOS>ATOM
      1 C         141.8713  139.2298  162.4686 C.3     1  UNL1        0.1200
      2 C         141.9344  137.7502  162.7069 C.3     1  UNL1        0.2250
      3 O         141.0012  137.1086  163.6904 O.3     1  UNL1       -0.4740
      4 C         140.0050  137.9465  164.4357 C.ar    1  UNL1        0.1346
      5 C         139.0717  137.3047  165.4192 C.ar    1  UNL1        0.0366
      6 C         138.0755  138.1427  166.1645 C.ar    1  UNL1        0.0031
      7 C         138.0125  139.6223  165.9262 C.ar    1  UNL1       -0.0001
      8 C         138.9457  140.2640  164.9427 C.ar    1  UNL1       -0.0009
      9 C         139.9419  139.4261  164.1974 C.ar    1  UNL1        0.0136
     10 C         140.8751  140.0677  163.2139 C.3     1  UNL1        0.0528
     11 C         138.8827  141.7436  164.7044 C.ar    1  UNL1        0.0029
     12 C         137.8897  142.3047  163.7302 C.ar    1  UNL1        0.0207
     13 C         137.8267  143.7844  163.4920 C.ar    1  UNL1        0.0989
     14 N         138.7566  144.7028  164.2279 N.ar    1  UNL1       -0.2423
     15 C         139.7496  144.1416  165.2021 C.ar    1  UNL1        0.0989
     16 C         139.8127  142.6621  165.4404 C.ar    1  UNL1        0.0207
     17 O         141.1149  139.3938  159.5701 O.2     1  UNL1       -0.2701
     18 C         142.4263  139.9535  160.0358 C.2     1  UNL1        0.2459
     19 N         142.8046  139.8715  161.4850 N.am    1  UNL1       -0.2986
     20 H         143.6653  140.2389  161.7907 H       1  UNL1        0.1498
     21 C         143.3595  140.5953  159.0523 C.ar    1  UNL1        0.0536
     22 C         143.6539  139.9187  157.7463 C.ar    1  UNL1        0.0076
     23 C         144.5870  140.5605  156.7628 C.ar    1  UNL1        0.0373
     24 C         145.2259  141.8787  157.0853 C.ar    1  UNL1        0.1468
     25 C         144.9316  142.5553  158.3912 C.ar    1  UNL1        0.0373
     26 C         143.9984  141.9136  159.3747 C.ar    1  UNL1        0.0076
     27 O         146.1591  142.5205  156.1017 O.3     1  UNL1       -0.4045
     28 C         147.6050  142.1227  156.0702 C.3     1  UNL1        0.5753
     29 F         149.0509  141.7249  156.0388 F       1  UNL1       -0.1328
     30 F         147.3571  141.3198  154.8277 F       1  UNL1       -0.1328
     31 F         147.8529  142.9256  157.3127 F       1  UNL1       -0.1328
@<TRIPOS>BOND
     1    17    18    2
     2    18    19   am
     3     1    19    1
     4     1     2    1
     5     2     3    1
     6     3     4    1
     7     4     5   ar
     8     5     6   ar
     9     6     7   ar
    10     7     8   ar
    11     8    11    1
    12    11    12   ar
    13    12    13   ar
    14    13    14   ar
    15    14    15   ar
    16    15    16   ar
    17     8     9   ar
    18     9    10    1
    19    18    21    1
    20    21    22   ar
    21    22    23   ar
    22    23    24   ar
    23    24    27    1
    24    27    28    1
    25    28    29    1
    26    28    30    1
    27    28    31    1
    28    24    25   ar
    29    25    26   ar
    30    10     1    1
    31    26    21   ar
    32     9     4   ar
    33    16    11   ar
    34    19    20    1
@<TRIPOS>MOLECULE
*****
 31 34 0 0 0
SMALL
GASTEIGER

@<TRIPOS>ATOM
      1 C         139.2966  140.4683  161.3792 C.3     1  UNL1        0.1200
      2 C         137.8122  140.6692  161.4578 C.3     1  UNL1        0.2250
      3 O         137.2473  141.7552  162.3246 O.3     1  UNL1       -0.4740
      4 C         138.1667  142.6402  163.1128 C.ar    1  UNL1        0.1346
      5 C         137.6017  143.7263  163.9796 C.ar    1  UNL1        0.0366
      6 C         138.5211  144.6114  164.7678 C.ar    1  UNL1        0.0031
      7 C         140.0056  144.4104  164.6892 C.ar    1  UNL1       -0.0001
      8 C         140.5705  143.3244  163.8224 C.ar    1  UNL1       -0.0009
      9 C         139.6511  142.4393  163.0342 C.ar    1  UNL1        0.0136
     10 C         140.2160  141.3533  162.1674 C.3     1  UNL1        0.0528
     11 C         142.0549  143.1235  163.7438 C.ar    1  UNL1        0.0029
     12 C         142.7406  142.2103  164.7163 C.ar    1  UNL1        0.0207
     13 C         144.2251  142.0094  164.6377 C.ar    1  UNL1        0.0989
     14 N         145.0237  142.7217  163.5866 N.ar    1  UNL1       -0.2423
     15 C         144.3379  143.6349  162.6141 C.ar    1  UNL1        0.0989
     16 C         142.8536  143.8358  162.6927 C.ar    1  UNL1        0.0207
     17 O         140.0032  141.0451  158.5212 O.2     1  UNL1       -0.2701
     18 C         140.2149  139.6706  159.0834 C.2     1  UNL1        0.2459
     19 N         139.8616  139.3822  160.5123 N.am    1  UNL1       -0.2986
     20 H         140.0005  138.4801  160.8813 H       1  UNL1        0.1498
     21 C         140.7799  138.5846  158.2166 C.ar    1  UNL1        0.0536
     22 C         139.9552  138.0070  157.1048 C.ar    1  UNL1        0.0076
     23 C         140.5202  136.9210  156.2380 C.ar    1  UNL1        0.0373
     24 C         141.9100  136.4126  156.4830 C.ar    1  UNL1        0.1468
     25 C         142.7348  136.9903  157.5948 C.ar    1  UNL1        0.0373
     26 C         142.1697  138.0762  158.4615 C.ar    1  UNL1        0.0076
     27 O         142.4750  135.3266  155.6162 O.3     1  UNL1       -0.4045
     28 C         142.5437  133.9182  156.1277 C.3     1  UNL1        0.5753
     29 F         142.6125  132.5098  156.6392 F       1  UNL1       -0.1328
     30 F         143.9494  134.1562  156.5940 F       1  UNL1       -0.1328
     31 F         141.1381  133.6802  155.6613 F       1  UNL1       -0.1328
@<TRIPOS>BOND
     1    17    18    2
     2    18    19   am
     3     1    19    1
     4     1     2    1
     5     2     3    1
     6     3     4    1
     7     4     5   ar
     8     5     6   ar
     9     6     7   ar
    10     7     8   ar
    11     8    11    1
    12    11    12   ar
    13    12    13   ar
    14    13    14   ar
    15    14    15   ar
    16    15    16   ar
    17     8     9   ar
    18     9    10    1
    19    18    21    1
    20    21    22   ar
    21    22    23   ar
    22    23    24   ar
    23    24    27    1
    24    27    28    1
    25    28    29    1
    26    28    30    1
    27    28    31    1
    28    24    25   ar
    29    25    26   ar
    30    10     1    1
    31    26    21   ar
    32     9     4   ar
    33    16    11   ar
    34    19    20    1
@<TRIPOS>MOLECULE
*****
 31 34 0 0 0
SMALL
GASTEIGER

@<TRIPOS>ATOM
      1 C         139.6477  141.6648  160.5346 C.3     1  UNL1        0.1200
      2 C         138.2566  142.1970  160.3577 C.3     1  UNL1        0.2250
      3 O         137.6433  143.0606  161.4198 O.3     1  UNL1       -0.4740
      4 C         138.4212  143.3919  162.6588 C.ar    1  UNL1        0.1346
      5 C         137.8079  144.2555  163.7210 C.ar    1  UNL1        0.0366
      6 C         138.5858  144.5868  164.9599 C.ar    1  UNL1        0.0031
      7 C         139.9770  144.0546  165.1368 C.ar    1  UNL1       -0.0001
      8 C         140.5903  143.1910  164.0746 C.ar    1  UNL1       -0.0009
      9 C         139.8124  142.8597  162.8357 C.ar    1  UNL1        0.0136
     10 C         140.4257  141.9962  161.7735 C.3     1  UNL1        0.0528
     11 C         141.9815  142.6588  164.2515 C.ar    1  UNL1        0.0029
     12 C         143.1563  143.4542  163.7645 C.ar    1  UNL1        0.0207
     13 C         144.5476  142.9219  163.9414 C.ar    1  UNL1        0.0989
     14 N         144.7639  141.5944  164.6052 N.ar    1  UNL1       -0.2423
     15 C         143.5891  140.7990  165.0922 C.ar    1  UNL1        0.0989
     16 C         142.1979  141.3312  164.9153 C.ar    1  UNL1        0.0207
     17 O         139.1009  138.7153  160.4984 O.2     1  UNL1       -0.2701
     18 C         139.9877  139.3265  159.4544 C.2     1  UNL1        0.2459
     19 N         140.2611  140.8012  159.4724 N.am    1  UNL1       -0.2986
     20 H         140.8431  141.2024  158.7871 H       1  UNL1        0.1498
     21 C         140.6010  138.4629  158.3922 C.ar    1  UNL1        0.0536
     22 C         142.0610  138.1240  158.4516 C.ar    1  UNL1        0.0076
     23 C         142.6743  137.2605  157.3895 C.ar    1  UNL1        0.0373
     24 C         141.8275  136.7358  156.2680 C.ar    1  UNL1        0.1468
     25 C         140.3676  137.0747  156.2086 C.ar    1  UNL1        0.0373
     26 C         139.7543  137.9382  157.2707 C.ar    1  UNL1        0.0076
     27 O         142.4409  135.8722  155.2058 O.3     1  UNL1       -0.4045
     28 C         143.3568  134.7480  155.5895 C.3     1  UNL1        0.5753
     29 F         144.2727  133.6239  155.9733 F       1  UNL1       -0.1328
     30 F         144.5442  135.6017  155.2562 F       1  UNL1       -0.1328
     31 F         142.1694  133.8944  155.9229 F       1  UNL1       -0.1328
@<TRIPOS>BOND
     1    17    18    2
     2    18    19   am
     3     1    19    1
     4     1     2    1
     5     2     3    1
     6     3     4    1
     7     4     5   ar
     8     5     6   ar
     9     6     7   ar
    10     7     8   ar
    11     8    11    1
    12    11    12   ar
    13    12    13   ar
    14    13    14   ar
    15    14    15   ar
    16    15    16   ar
    17     8     9   ar
    18     9    10    1
    19    18    21    1
    20    21    22   ar
    21    22    23   ar
    22    23    24   ar
    23    24    27    1
    24    27    28    1
    25    28    29    1
    26    28    30    1
    27    28    31    1
    28    24    25   ar
    29    25    26   ar
    30    10     1    1
    31    26    21   ar
    32     9     4   ar
    33    16    11   ar
    34    19    20    1
@<TRIPOS>MOLECULE
*****
 31 34 0 0 0
SMALL
GASTEIGER

@<TRIPOS>ATOM
      1 C         140.7988  139.1058  163.5134 C.3     1  UNL1        0.1200
      2 C         141.3345  138.1910  164.5746 C.3     1  UNL1        0.2250
      3 O         141.4851  138.6836  165.9833 O.3     1  UNL1       -0.4740
      4 C         141.0999  140.0910  166.3309 C.ar    1  UNL1        0.1346
      5 C         141.2506  140.5836  167.7398 C.ar    1  UNL1        0.0366
      6 C         140.8654  141.9911  168.0874 C.ar    1  UNL1        0.0031
      7 C         140.3297  142.9059  167.0261 C.ar    1  UNL1       -0.0001
      8 C         140.1791  142.4133  165.6174 C.ar    1  UNL1       -0.0009
      9 C         140.5642  141.0059  165.2698 C.ar    1  UNL1        0.0136
     10 C         140.4137  140.5133  163.8610 C.3     1  UNL1        0.0528
     11 C         139.6434  143.3281  164.5562 C.ar    1  UNL1        0.0029
     12 C         138.1760  143.3383  164.2457 C.ar    1  UNL1        0.0207
     13 C         137.6403  144.2532  163.1845 C.ar    1  UNL1        0.0989
     14 N         138.5721  145.1578  162.4339 N.ar    1  UNL1       -0.2423
     15 C         140.0395  145.1476  162.7444 C.ar    1  UNL1        0.0989
     16 C         140.5752  144.2328  163.8056 C.ar    1  UNL1        0.0207
     17 O         142.9270  139.6950  161.4827 O.2     1  UNL1       -0.2701
     18 C         141.7123  138.9078  161.0893 C.2     1  UNL1        0.2459
     19 N         140.6482  138.6132  162.1046 N.am    1  UNL1       -0.2986
     20 H         139.8509  138.0966  161.8464 H       1  UNL1        0.1498
     21 C         141.5616  138.4152  159.6804 C.ar    1  UNL1        0.0536
     22 C         140.2360  138.5211  158.9866 C.ar    1  UNL1        0.0076
     23 C         140.0855  138.0286  157.5778 C.ar    1  UNL1        0.0373
     24 C         141.2605  137.4301  156.8629 C.ar    1  UNL1        0.1468
     25 C         142.5861  137.3242  157.5568 C.ar    1  UNL1        0.0373
     26 C         142.7367  137.8168  158.9656 C.ar    1  UNL1        0.0076
     27 O         141.1099  136.9375  155.4541 O.3     1  UNL1       -0.4045
     28 C         142.0554  135.9051  154.9154 C.3     1  UNL1        0.5753
     29 F         143.0008  134.8727  154.3768 F       1  UNL1       -0.1328
     30 F         141.3057  134.8345  155.6515 F       1  UNL1       -0.1328
     31 F         142.8050  136.9756  154.1794 F       1  UNL1       -0.1328
@<TRIPOS>BOND
     1    17    18    2
     2    18    19   am
     3     1    19    1
     4     1     2    1
     5     2     3    1
     6     3     4    1
     7     4     5   ar
     8     5     6   ar
     9     6     7   ar
    10     7     8   ar
    11     8    11    1
    12    11    12   ar
    13    12    13   ar
    14    13    14   ar
    15    14    15   ar
    16    15    16   ar
    17     8     9   ar
    18     9    10    1
    19    18    21    1
    20    21    22   ar
    21    22    23   ar
    22    23    24   ar
    23    24    27    1
    24    27    28    1
    25    28    29    1
    26    28    30    1
    27    28    31    1
    28    24    25   ar
    29    25    26   ar
    30    10     1    1
    31    26    21   ar
    32     9     4   ar
    33    16    11   ar
    34    19    20    1
@<TRIPOS>MOLECULE
*****
 31 34 0 0 0
SMALL
GASTEIGER

@<TRIPOS>ATOM
      1 C         137.6997  141.2931  157.4528 C.3     1  UNL1        0.1200
      2 C         138.8149  141.8881  156.6451 C.3     1  UNL1        0.2250
      3 O         138.6107  142.1848  155.1890 O.3     1  UNL1       -0.4740
      4 C         137.2914  141.8865  154.5406 C.ar    1  UNL1        0.1346
      5 C         137.0873  142.1833  153.0844 C.ar    1  UNL1        0.0366
      6 C         135.7681  141.8849  152.4360 C.ar    1  UNL1        0.0031
      7 C         134.6529  141.2899  153.2437 C.ar    1  UNL1       -0.0001
      8 C         134.8570  140.9932  154.6998 C.ar    1  UNL1       -0.0009
      9 C         136.1763  141.2915  155.3482 C.ar    1  UNL1        0.0136
     10 C         136.3804  140.9948  156.8043 C.3     1  UNL1        0.0528
     11 C         133.7419  140.3981  155.5074 C.ar    1  UNL1        0.0029
     12 C         132.4673  141.1641  155.7049 C.ar    1  UNL1        0.0207
     13 C         131.3522  140.5689  156.5126 C.ar    1  UNL1        0.0989
     14 N         131.5115  139.2080  157.1227 N.ar    1  UNL1       -0.2423
     15 C         132.7860  138.4421  156.9253 C.ar    1  UNL1        0.0989
     16 C         133.9012  139.0371  156.1177 C.ar    1  UNL1        0.0207
     17 O         139.1347  138.7943  158.2877 O.2     1  UNL1       -0.2701
     18 C         138.6213  139.7470  159.3264 C.2     1  UNL1        0.2459
     19 N         137.9038  140.9963  158.9089 N.am    1  UNL1       -0.2986
     20 H         137.5669  141.6216  159.5907 H       1  UNL1        0.1498
     21 C         138.8254  139.4502  160.7825 C.ar    1  UNL1        0.0536
     22 C         138.5822  140.5185  161.8069 C.ar    1  UNL1        0.0076
     23 C         138.7863  140.2218  163.2630 C.ar    1  UNL1        0.0373
     24 C         139.2336  138.8567  163.6947 C.ar    1  UNL1        0.1468
     25 C         139.4769  137.7883  162.6703 C.ar    1  UNL1        0.0373
     26 C         139.2728  138.0851  161.2142 C.ar    1  UNL1        0.0076
     27 O         139.4377  138.5599  165.1509 O.3     1  UNL1       -0.4045
     28 C         138.2573  138.2705  166.0299 C.3     1  UNL1        0.5753
     29 F         137.0769  137.9812  166.9090 F       1  UNL1       -0.1328
     30 F         138.3472  136.8167  165.6721 F       1  UNL1       -0.1328
     31 F         138.1674  139.7244  166.3878 F       1  UNL1       -0.1328
@<TRIPOS>BOND
     1    17    18    2
     2    18    19   am
     3     1    19    1
     4     1     2    1
     5     2     3    1
     6     3     4    1
     7     4     5   ar
     8     5     6   ar
     9     6     7   ar
    10     7     8   ar
    11     8    11    1
    12    11    12   ar
    13    12    13   ar
    14    13    14   ar
    15    14    15   ar
    16    15    16   ar
    17     8     9   ar
    18     9    10    1
    19    18    21    1
    20    21    22   ar
    21    22    23   ar
    22    23    24   ar
    23    24    27    1
    24    27    28    1
    25    28    29    1
    26    28    30    1
    27    28    31    1
    28    24    25   ar
    29    25    26   ar
    30    10     1    1
    31    26    21   ar
    32     9     4   ar
    33    16    11   ar
    34    19    20    1
@<TRIPOS>MOLECULE
*****
 31 34 0 0 0
SMALL
GASTEIGER

@<TRIPOS>ATOM
      1 C         140.5393  142.7057  160.3248 C.3     1  UNL1        0.1200
      2 C         139.0977  142.8092  159.9239 C.3     1  UNL1        0.2250
      3 O         138.0700  143.2449  160.9259 O.3     1  UNL1       -0.4740
      4 C         138.4840  143.5771  162.3288 C.ar    1  UNL1        0.1346
      5 C         137.4563  144.0128  163.3309 C.ar    1  UNL1        0.0366
      6 C         137.8703  144.3449  164.7338 C.ar    1  UNL1        0.0031
      7 C         139.3121  144.2413  165.1347 C.ar    1  UNL1       -0.0001
      8 C         140.3397  143.8056  164.1327 C.ar    1  UNL1       -0.0009
      9 C         139.9257  143.4735  162.7298 C.ar    1  UNL1        0.0136
     10 C         140.9533  143.0378  161.7278 C.3     1  UNL1        0.0528
     11 C         141.7814  143.7020  164.5337 C.ar    1  UNL1        0.0029
     12 C         142.7557  144.7607  164.1096 C.ar    1  UNL1        0.0207
     13 C         144.1975  144.6571  164.5106 C.ar    1  UNL1        0.0989
     14 N         144.6648  143.4948  165.3357 N.ar    1  UNL1       -0.2423
     15 C         143.6904  142.4361  165.7597 C.ar    1  UNL1        0.0989
     16 C         142.2488  142.5397  165.3588 C.ar    1  UNL1        0.0207
     17 O         142.2561  144.7474  158.9522 O.2     1  UNL1       -0.2701
     18 C         142.4254  143.2908  158.6365 C.2     1  UNL1        0.2459
     19 N         141.5671  142.2699  159.3228 N.am    1  UNL1       -0.2986
     20 H         141.6782  141.3139  159.1156 H       1  UNL1        0.1498
     21 C         143.4532  142.8551  157.6345 C.ar    1  UNL1        0.0536
     22 C         144.8291  142.4694  158.0907 C.ar    1  UNL1        0.0076
     23 C         145.8567  142.0338  157.0887 C.ar    1  UNL1        0.0373
     24 C         145.5085  141.9837  155.6305 C.ar    1  UNL1        0.1468
     25 C         144.1326  142.3693  155.1744 C.ar    1  UNL1        0.0373
     26 C         143.1049  142.8050  156.1764 C.ar    1  UNL1        0.0076
     27 O         146.5362  141.5480  154.6285 O.3     1  UNL1       -0.4045
     28 C         147.7456  142.3986  154.3762 C.3     1  UNL1        0.5753
     29 F         148.9550  143.2493  154.1240 F       1  UNL1       -0.1328
     30 F         146.9266  143.3047  153.5055 F       1  UNL1       -0.1328
     31 F         148.5646  141.4925  155.2470 F       1  UNL1       -0.1328
@<TRIPOS>BOND
     1    17    18    2
     2    18    19   am
     3     1    19    1
     4     1     2    1
     5     2     3    1
     6     3     4    1
     7     4     5   ar
     8     5     6   ar
     9     6     7   ar
    10     7     8   ar
    11     8    11    1
    12    11    12   ar
    13    12    13   ar
    14    13    14   ar
    15    14    15   ar
    16    15    16   ar
    17     8     9   ar
    18     9    10    1
    19    18    21    1
    20    21    22   ar
    21    22    23   ar
    22    23    24   ar
    23    24    27    1
    24    27    28    1
    25    28    29    1
    26    28    30    1
    27    28    31    1
    28    24    25   ar
    29    25    26   ar
    30    10     1    1
    31    26    21   ar
    32     9     4   ar
    33    16    11   ar
    34    19    20    1
@<TRIPOS>MOLECULE
*****
 31 34 0 0 0
SMALL
GASTEIGER

@<TRIPOS>ATOM
      1 C         142.9480  142.8393  164.2703 C.3     1  UNL1        0.1200
      2 C         143.9304  143.6904  165.0188 C.3     1  UNL1        0.2250
      3 O         144.1481  143.4700  166.4865 O.3     1  UNL1       -0.4740
      4 C         143.3832  142.3986  167.2056 C.ar    1  UNL1        0.1346
      5 C         143.6009  142.1783  168.6733 C.ar    1  UNL1        0.0366
      6 C         142.8360  141.1069  169.3924 C.ar    1  UNL1        0.0031
      7 C         141.8535  140.2558  168.6438 C.ar    1  UNL1       -0.0001
      8 C         141.6359  140.4762  167.1761 C.ar    1  UNL1       -0.0009
      9 C         142.4007  141.5476  166.4570 C.ar    1  UNL1        0.0136
     10 C         142.1831  141.7679  164.9894 C.3     1  UNL1        0.0528
     11 C         140.6534  139.6251  166.4276 C.ar    1  UNL1        0.0029
     12 C         141.1437  138.5642  165.4873 C.ar    1  UNL1        0.0207
     13 C         140.1611  137.7131  164.7387 C.ar    1  UNL1        0.0989
     14 N         138.6883  137.9230  164.9304 N.ar    1  UNL1       -0.2423
     15 C         138.1980  138.9839  165.8707 C.ar    1  UNL1        0.0989
     16 C         139.1805  139.8349  166.6192 C.ar    1  UNL1        0.0207
     17 O         141.0820  144.9954  163.3376 O.2     1  UNL1       -0.2701
     18 C         141.7973  144.1376  162.3362 C.2     1  UNL1        0.2459
     19 N         142.7303  143.0596  162.8026 N.am    1  UNL1       -0.2986
     20 H         143.1997  142.4967  162.1453 H       1  UNL1        0.1498
     21 C         141.5797  144.3580  160.8685 C.ar    1  UNL1        0.0536
     22 C         140.5461  145.3401  160.4027 C.ar    1  UNL1        0.0076
     23 C         140.3285  145.5604  158.9351 C.ar    1  UNL1        0.0373
     24 C         141.1444  144.7985  157.9332 C.ar    1  UNL1        0.1468
     25 C         142.1780  143.8164  158.3990 C.ar    1  UNL1        0.0373
     26 C         142.3956  143.5961  159.8666 C.ar    1  UNL1        0.0076
     27 O         140.9267  145.0189  156.4655 O.3     1  UNL1       -0.4045
     28 C         139.6830  145.7071  155.9867 C.3     1  UNL1        0.5753
     29 F         138.4392  146.3954  155.5080 F       1  UNL1       -0.1328
     30 F         138.9097  144.4343  156.1656 F       1  UNL1       -0.1328
     31 F         140.4562  146.9799  155.8078 F       1  UNL1       -0.1328
@<TRIPOS>BOND
     1    17    18    2
     2    18    19   am
     3     1    19    1
     4     1     2    1
     5     2     3    1
     6     3     4    1
     7     4     5   ar
     8     5     6   ar
     9     6     7   ar
    10     7     8   ar
    11     8    11    1
    12    11    12   ar
    13    12    13   ar
    14    13    14   ar
    15    14    15   ar
    16    15    16   ar
    17     8     9   ar
    18     9    10    1
    19    18    21    1
    20    21    22   ar
    21    22    23   ar
    22    23    24   ar
    23    24    27    1
    24    27    28    1
    25    28    29    1
    26    28    30    1
    27    28    31    1
    28    24    25   ar
    29    25    26   ar
    30    10     1    1
    31    26    21   ar
    32     9     4   ar
    33    16    11   ar
    34    19    20    1
@<TRIPOS>MOLECULE
*****
 31 34 0 0 0
SMALL
GASTEIGER

@<TRIPOS>ATOM
      1 C         143.2114  142.8839  161.0664 C.3     1  UNL1        0.1200
      2 C         144.6043  143.1685  161.5447 C.3     1  UNL1        0.2250
      3 O         145.2347  142.2893  162.5837 O.3     1  UNL1       -0.4740
      4 C         144.4723  141.1256  163.1444 C.ar    1  UNL1        0.1346
      5 C         145.1028  140.2464  164.1835 C.ar    1  UNL1        0.0366
      6 C         144.3403  139.0826  164.7441 C.ar    1  UNL1        0.0031
      7 C         142.9474  138.7981  164.2658 C.ar    1  UNL1       -0.0001
      8 C         142.3169  139.6773  163.2268 C.ar    1  UNL1       -0.0009
      9 C         143.0794  140.8410  162.6661 C.ar    1  UNL1        0.0136
     10 C         142.4489  141.7202  161.6271 C.3     1  UNL1        0.0528
     11 C         140.9240  139.3927  162.7485 C.ar    1  UNL1        0.0029
     12 C         139.7513  140.0317  163.4314 C.ar    1  UNL1        0.0207
     13 C         138.3583  139.7471  162.9531 C.ar    1  UNL1        0.0989
     14 N         138.1382  138.8235  161.7918 N.ar    1  UNL1       -0.2423
     15 C         139.3109  138.1845  161.1089 C.ar    1  UNL1        0.0989
     16 C         140.7038  138.4691  161.5872 C.ar    1  UNL1        0.0207
     17 O         143.6053  142.2835  158.1537 O.2     1  UNL1       -0.2701
     18 C         142.7778  143.4629  158.5711 C.2     1  UNL1        0.2459
     19 N         142.5809  143.7631  160.0274 N.am    1  UNL1       -0.2986
     20 H         142.0378  144.5372  160.3013 H       1  UNL1        0.1498
     21 C         142.1473  144.3421  157.5320 C.ar    1  UNL1        0.0536
     22 C         142.4982  144.1629  156.0847 C.ar    1  UNL1        0.0076
     23 C         141.8677  145.0421  155.0458 C.ar    1  UNL1        0.0373
     24 C         140.8863  146.1004  155.4541 C.ar    1  UNL1        0.1468
     25 C         140.5354  146.2796  156.9014 C.ar    1  UNL1        0.0373
     26 C         141.1659  145.4005  157.9404 C.ar    1  UNL1        0.0076
     27 O         140.2558  146.9796  154.4151 O.3     1  UNL1       -0.4045
     28 C         139.3408  148.0935  154.8300 C.3     1  UNL1        0.5753
     29 F         138.4259  149.2073  155.2450 F       1  UNL1       -0.1328
     30 F         140.4639  149.0751  154.6714 F       1  UNL1       -0.1328
     31 F         138.2178  147.1119  154.9887 F       1  UNL1       -0.1328
@<TRIPOS>BOND
     1    17    18    2
     2    18    19   am
     3     1    19    1
     4     1     2    1
     5     2     3    1
     6     3     4    1
     7     4     5   ar
     8     5     6   ar
     9     6     7   ar
    10     7     8   ar
    11     8    11    1
    12    11    12   ar
    13    12    13   ar
    14    13    14   ar
    15    14    15   ar
    16    15    16   ar
    17     8     9   ar
    18     9    10    1
    19    18    21    1
    20    21    22   ar
    21    22    23   ar
    22    23    24   ar
    23    24    27    1
    24    27    28    1
    25    28    29    1
    26    28    30    1
    27    28    31    1
    28    24    25   ar
    29    25    26   ar
    30    10     1    1
    31    26    21   ar
    32     9     4   ar
    33    16    11   ar
    34    19    20    1
@<TRIPOS>MOLECULE
*****
 31 34 0 0 0
SMALL
GASTEIGER

@<TRIPOS>ATOM
      1 C         143.4166  142.4000  164.3422 C.3     1  UNL1        0.1200
      2 C         144.2913  143.3197  165.1416 C.3     1  UNL1        0.2250
      3 O         144.2409  143.2879  166.6404 O.3     1  UNL1       -0.4740
      4 C         143.3159  142.3364  167.3397 C.ar    1  UNL1        0.1346
      5 C         143.2656  142.3047  168.8386 C.ar    1  UNL1        0.0366
      6 C         142.3406  141.3532  169.5380 C.ar    1  UNL1        0.0031
      7 C         141.4659  140.4335  168.7385 C.ar    1  UNL1       -0.0001
      8 C         141.5163  140.4653  167.2397 C.ar    1  UNL1       -0.0009
      9 C         142.4413  141.4168  166.5403 C.ar    1  UNL1        0.0136
     10 C         142.4916  141.4485  165.0415 C.3     1  UNL1        0.0528
     11 C         140.6416  139.5456  166.4402 C.ar    1  UNL1        0.0029
     12 C         139.1496  139.6277  166.5710 C.ar    1  UNL1        0.0207
     13 C         138.2749  138.7079  165.7715 C.ar    1  UNL1        0.0989
     14 N         138.8923  137.7062  164.8413 N.ar    1  UNL1       -0.2423
     15 C         140.3844  137.6241  164.7106 C.ar    1  UNL1        0.0989
     16 C         141.2590  138.5438  165.5100 C.ar    1  UNL1        0.0207
     17 O         144.6885  140.1387  162.8357 O.2     1  UNL1       -0.2701
     18 C         144.1029  141.3011  162.0901 C.2     1  UNL1        0.2459
     19 N         143.4670  142.4317  162.8433 N.am    1  UNL1       -0.2986
     20 H         143.0826  143.1946  162.3539 H       1  UNL1        0.1498
     21 C         144.1532  141.3329  160.5913 C.ar    1  UNL1        0.0536
     22 C         144.6334  142.5647  159.8829 C.ar    1  UNL1        0.0076
     23 C         144.6837  142.5964  158.3841 C.ar    1  UNL1        0.0373
     24 C         144.2538  141.3962  157.5937 C.ar    1  UNL1        0.1468
     25 C         143.7736  140.1644  158.3021 C.ar    1  UNL1        0.0373
     26 C         143.7233  140.1327  159.8008 C.ar    1  UNL1        0.0076
     27 O         144.3042  141.4280  156.0948 O.3     1  UNL1       -0.4045
     28 C         145.4437  142.1094  155.3969 C.3     1  UNL1        0.5753
     29 F         146.5832  142.7909  154.6990 F       1  UNL1       -0.1328
     30 F         146.3767  141.0351  155.8713 F       1  UNL1       -0.1328
     31 F         144.5106  143.1838  154.9226 F       1  UNL1       -0.1328
@<TRIPOS>BOND
     1    17    18    2
     2    18    19   am
     3     1    19    1
     4     1     2    1
     5     2     3    1
     6     3     4    1
     7     4     5   ar
     8     5     6   ar
     9     6     7   ar
    10     7     8   ar
    11     8    11    1
    12    11    12   ar
    13    12    13   ar
    14    13    14   ar
    15    14    15   ar
    16    15    16   ar
    17     8     9   ar
    18     9    10    1
    19    18    21    1
    20    21    22   ar
    21    22    23   ar
    22    23    24   ar
    23    24    27    1
    24    27    28    1
    25    28    29    1
    26    28    30    1
    27    28    31    1
    28    24    25   ar
    29    25    26   ar
    30    10     1    1
    31    26    21   ar
    32     9     4   ar
    33    16    11   ar
    34    19    20    1
