@<TRIPOS>MOLECULE
*****
 34 37 0 0 0
SMALL
GASTEIGER

@<TRIPOS>ATOM
      1 C         140.5779  143.9509  161.1191 C.ar    1  UNL1        0.1233
      2 C         140.3570  143.4004  162.4968 C.ar    1  UNL1        0.1179
      3 N         139.2145  144.1486  163.1172 N.ar    1  UNL1       -0.2257
      4 N         138.7294  145.1616  162.1229 N.ar    1  UNL1       -0.0635
      5 N         139.5720  145.0394  160.8880 N.ar    1  UNL1       -0.1287
      6 C         143.3761  141.7330  159.3867 C.ar    1  UNL1        0.1547
      7 C         142.3325  142.1906  160.3621 C.ar    1  UNL1        0.0400
      8 C         141.6216  143.4932  160.1436 C.ar    1  UNL1        0.0241
      9 C         141.9542  144.3382  158.9498 C.ar    1  UNL1        0.0033
     10 C         142.9978  143.8806  157.9744 C.ar    1  UNL1        0.0207
     11 C         143.7088  142.5779  158.1928 C.ar    1  UNL1        0.0994
     12 N         144.7524  142.1203  157.2174 N.ar    1  UNL1       -0.2839
     13 C         144.5316  141.1896  156.0620 C.ar    1  UNL1        0.1826
     14 N         145.8428  141.0071  155.3566 N.ar    1  UNL1       -0.2280
     15 C         146.8740  141.8251  156.0761 C.ar    1  UNL1        0.0786
     16 C         148.3244  141.9357  155.7099 C.3     1  UNL1        0.0538
     17 C         146.2001  142.5131  157.2261 C.ar    1  UNL1        0.0963
     18 C         143.3020  139.1898  159.9125 C.3     1  UNL1        0.2525
     19 O         144.0871  140.4303  159.6052 O.3     1  UNL1       -0.4700
     20 C         138.6554  143.9235  164.4908 C.3     1  UNL1        0.1556
     21 C         139.2123  142.8335  165.3579 C.ar    1  UNL1        0.0015
     22 C         138.8720  141.4006  165.0727 C.ar    1  UNL1       -0.0066
     23 C         139.4289  140.3107  165.9398 C.ar    1  UNL1       -0.0234
     24 C         140.3261  140.6536  167.0921 C.ar    1  UNL1       -0.0086
     25 C         140.6663  142.0864  167.3772 C.ar    1  UNL1       -0.0234
     26 C         140.1094  143.1763  166.5100 C.ar    1  UNL1       -0.0066
     27 C         139.0887  138.8779  165.6547 C.3     1  UNL1        0.0189
     28 C         140.1943  138.8167  164.6429 C.3     1  UNL1        0.0044
     29 C         137.9831  138.9391  166.6666 C.3     1  UNL1        0.0044
     30 C         138.7485  137.4451  165.3696 C.3     1  UNL1        0.0044
     31 C         141.5634  142.4293  168.5294 C.3     1  UNL1        0.0189
     32 C         142.6500  141.5830  167.9352 C.3     1  UNL1        0.0044
     33 C         140.4768  143.2756  169.1236 C.3     1  UNL1        0.0044
     34 C         142.4606  142.7721  169.6816 C.3     1  UNL1        0.0044
@<TRIPOS>BOND
     1    18    19    1
     2    19     6    1
     3     6     7   ar
     4     7     8   ar
     5     8     1    1
     6     1     2   ar
     7     2     3   ar
     8     3    20    1
     9    20    21    1
    10    21    22   ar
    11    22    23   ar
    12    23    27    1
    13    27    28    1
    14    27    29    1
    15    27    30    1
    16    23    24   ar
    17    24    25   ar
    18    25    31    1
    19    31    32    1
    20    31    33    1
    21    31    34    1
    22    25    26   ar
    23     3     4   ar
    24     4     5   ar
    25     8     9   ar
    26     9    10   ar
    27    10    11   ar
    28    11    12    1
    29    12    13   ar
    30    13    14   ar
    31    14    15   ar
    32    15    16    1
    33    15    17   ar
    34    11     6   ar
    35    17    12   ar
    36     5     1   ar
    37    26    21   ar
@<TRIPOS>MOLECULE
*****
 34 37 0 0 0
SMALL
GASTEIGER

@<TRIPOS>ATOM
      1 C         140.5997  143.9476  161.1292 C.ar    1  UNL1        0.1233
      2 C         140.3708  143.4241  162.5161 C.ar    1  UNL1        0.1179
      3 N         139.2347  144.1946  163.1207 N.ar    1  UNL1       -0.2257
      4 N         138.7614  145.1943  162.1075 N.ar    1  UNL1       -0.0635
      5 N         139.6050  145.0416  160.8766 N.ar    1  UNL1       -0.1287
      6 C         143.3899  141.6789  159.4505 C.ar    1  UNL1        0.1547
      7 C         142.3492  142.1643  160.4155 C.ar    1  UNL1        0.0400
      8 C         141.6405  143.4622  160.1641 C.ar    1  UNL1        0.0241
      9 C         141.9725  144.2747  158.9478 C.ar    1  UNL1        0.0033
     10 C         143.0133  143.7894  157.9829 C.ar    1  UNL1        0.0207
     11 C         143.7220  142.4915  158.2342 C.ar    1  UNL1        0.0994
     12 N         144.7628  142.0061  157.2692 N.ar    1  UNL1       -0.2839
     13 C         144.5731  140.9418  156.2294 C.ar    1  UNL1        0.1826
     14 N         145.8691  140.7778  155.4921 N.ar    1  UNL1       -0.2280
     15 C         146.8598  141.7408  156.0763 C.ar    1  UNL1        0.0786
     16 C         148.2841  141.9142  155.6390 C.3     1  UNL1        0.0538
     17 C         146.1760  142.4999  157.1746 C.ar    1  UNL1        0.0963
     18 C         143.9094  139.6633  161.0053 C.3     1  UNL1        0.2525
     19 O         144.0986  140.3810  159.7019 O.3     1  UNL1       -0.4700
     20 C         138.6708  143.9996  164.4970 C.3     1  UNL1        0.1556
     21 C         139.1979  142.9038  165.3752 C.ar    1  UNL1        0.0015
     22 C         140.1042  143.2338  166.5241 C.ar    1  UNL1       -0.0066
     23 C         140.6313  142.1380  167.4023 C.ar    1  UNL1       -0.0234
     24 C         140.2523  140.7121  167.1316 C.ar    1  UNL1       -0.0086
     25 C         139.3461  140.3821  165.9828 C.ar    1  UNL1       -0.0234
     26 C         138.8190  141.4780  165.1046 C.ar    1  UNL1       -0.0066
     27 C         141.5374  142.4680  168.5512 C.3     1  UNL1        0.0189
     28 C         142.7221  142.0273  167.7435 C.3     1  UNL1        0.0044
     29 C         140.3528  142.9087  169.3589 C.3     1  UNL1        0.0044
     30 C         142.4436  142.7980  169.7001 C.3     1  UNL1        0.0044
     31 C         138.9671  138.9562  165.7121 C.3     1  UNL1        0.0189
     32 C         139.7688  138.9837  164.4446 C.3     1  UNL1        0.0044
     33 C         138.1653  138.9287  166.9795 C.3     1  UNL1        0.0044
     34 C         138.5880  137.5304  165.4414 C.3     1  UNL1        0.0044
@<TRIPOS>BOND
     1    18    19    1
     2    19     6    1
     3     6     7   ar
     4     7     8   ar
     5     8     1    1
     6     1     2   ar
     7     2     3   ar
     8     3    20    1
     9    20    21    1
    10    21    22   ar
    11    22    23   ar
    12    23    27    1
    13    27    28    1
    14    27    29    1
    15    27    30    1
    16    23    24   ar
    17    24    25   ar
    18    25    31    1
    19    31    32    1
    20    31    33    1
    21    31    34    1
    22    25    26   ar
    23     3     4   ar
    24     4     5   ar
    25     8     9   ar
    26     9    10   ar
    27    10    11   ar
    28    11    12    1
    29    12    13   ar
    30    13    14   ar
    31    14    15   ar
    32    15    16    1
    33    15    17   ar
    34    11     6   ar
    35    17    12   ar
    36     5     1   ar
    37    26    21   ar
@<TRIPOS>MOLECULE
*****
 34 37 0 0 0
SMALL
GASTEIGER

@<TRIPOS>ATOM
      1 C         144.1184  140.6792  161.7178 C.ar    1  UNL1        0.1233
      2 C         143.5165  140.7633  163.0891 C.ar    1  UNL1        0.1179
      3 N         144.2622  141.8126  163.8591 N.ar    1  UNL1       -0.2257
      4 N         145.3251  142.3770  162.9636 N.ar    1  UNL1       -0.0635
      5 N         145.2361  141.6766  161.6402 N.ar    1  UNL1       -0.1287
      6 C         143.1679  139.3406  158.1046 C.ar    1  UNL1        0.1547
      7 C         143.6067  140.2604  159.2052 C.ar    1  UNL1        0.0400
      8 C         143.6796  139.7593  160.6171 C.ar    1  UNL1        0.0241
      9 C         143.3137  138.3384  160.9285 C.ar    1  UNL1        0.0033
     10 C         142.8749  137.4185  159.8279 C.ar    1  UNL1        0.0207
     11 C         142.8020  137.9197  158.4160 C.ar    1  UNL1        0.0994
     12 N         142.3632  136.9998  157.3153 N.ar    1  UNL1       -0.2839
     13 C         141.0719  137.0854  156.5569 C.ar    1  UNL1        0.1826
     14 N         141.0494  135.9713  155.5528 N.ar    1  UNL1       -0.2280
     15 C         142.3268  135.1971  155.6906 C.ar    1  UNL1        0.0786
     16 C         142.7226  133.9978  154.8813 C.3     1  UNL1        0.0538
     17 C         143.1388  135.8327  156.7799 C.ar    1  UNL1        0.0963
     18 C         144.1862  139.5051  155.7201 C.3     1  UNL1        0.2525
     19 O         143.0950  139.8417  156.6927 O.3     1  UNL1       -0.4700
     20 C         143.9925  142.2251  165.2758 C.3     1  UNL1        0.1556
     21 C         142.5885  142.5122  165.7191 C.ar    1  UNL1        0.0015
     22 C         141.6157  143.1428  164.7671 C.ar    1  UNL1       -0.0066
     23 C         140.2117  143.4300  165.2103 C.ar    1  UNL1       -0.0234
     24 C         139.7806  143.0865  166.6054 C.ar    1  UNL1       -0.0086
     25 C         140.7534  142.4560  167.5573 C.ar    1  UNL1       -0.0234
     26 C         142.1573  142.1689  167.1140 C.ar    1  UNL1       -0.0066
     27 C         139.2389  144.0605  164.2585 C.3     1  UNL1        0.0189
     28 C         139.8374  143.2772  163.1279 C.3     1  UNL1        0.0044
     29 C         138.6405  144.8438  165.3891 C.3     1  UNL1        0.0044
     30 C         138.2661  144.6910  163.3066 C.3     1  UNL1        0.0044
     31 C         140.3222  142.1126  168.9523 C.3     1  UNL1        0.0189
     32 C         140.0164  140.7114  168.5129 C.3     1  UNL1        0.0044
     33 C         140.6281  143.5138  169.3918 C.3     1  UNL1        0.0044
     34 C         139.8911  141.7692  170.3474 C.3     1  UNL1        0.0044
@<TRIPOS>BOND
     1    18    19    1
     2    19     6    1
     3     6     7   ar
     4     7     8   ar
     5     8     1    1
     6     1     2   ar
     7     2     3   ar
     8     3    20    1
     9    20    21    1
    10    21    22   ar
    11    22    23   ar
    12    23    27    1
    13    27    28    1
    14    27    29    1
    15    27    30    1
    16    23    24   ar
    17    24    25   ar
    18    25    31    1
    19    31    32    1
    20    31    33    1
    21    31    34    1
    22    25    26   ar
    23     3     4   ar
    24     4     5   ar
    25     8     9   ar
    26     9    10   ar
    27    10    11   ar
    28    11    12    1
    29    12    13   ar
    30    13    14   ar
    31    14    15   ar
    32    15    16    1
    33    15    17   ar
    34    11     6   ar
    35    17    12   ar
    36     5     1   ar
    37    26    21   ar
@<TRIPOS>MOLECULE
*****
 34 37 0 0 0
SMALL
GASTEIGER

@<TRIPOS>ATOM
      1 C         143.9479  141.1125  161.2468 C.ar    1  UNL1        0.1233
      2 C         143.7458  141.0307  162.7308 C.ar    1  UNL1        0.1179
      3 N         144.2942  142.2854  163.3432 N.ar    1  UNL1       -0.2257
      4 N         144.8353  143.1428  162.2375 N.ar    1  UNL1       -0.0635
      5 N         144.6212  142.4178  160.9419 N.ar    1  UNL1       -0.1287
      6 C         143.0848  139.3790  157.7827 C.ar    1  UNL1        0.1547
      7 C         143.4856  140.4196  158.7858 C.ar    1  UNL1        0.0400
      8 C         143.5471  140.0718  160.2436 C.ar    1  UNL1        0.0241
      9 C         143.2078  138.6833  160.6983 C.ar    1  UNL1        0.0033
     10 C         142.8070  137.6426  159.6952 C.ar    1  UNL1        0.0207
     11 C         142.7455  137.9904  158.2374 C.ar    1  UNL1        0.0994
     12 N         142.3447  136.9497  157.2342 N.ar    1  UNL1       -0.2839
     13 C         141.0592  136.9185  156.4618 C.ar    1  UNL1        0.1826
     14 N         141.0791  135.7069  155.5776 N.ar    1  UNL1       -0.2280
     15 C         142.3768  134.9893  155.8036 C.ar    1  UNL1        0.0786
     16 C         142.8153  133.7256  155.1249 C.3     1  UNL1        0.0538
     17 C         143.1590  135.7574  156.8274 C.ar    1  UNL1        0.0963
     18 C         143.3233  141.1257  155.8743 C.3     1  UNL1        0.2525
     19 O         143.0234  139.7268  156.3249 O.3     1  UNL1       -0.4700
     20 C         144.3005  142.6235  164.8046 C.3     1  UNL1        0.1556
     21 C         143.0109  142.6698  165.5692 C.ar    1  UNL1        0.0015
     22 C         143.0062  142.4167  167.0478 C.ar    1  UNL1       -0.0066
     23 C         141.7166  142.4630  167.8125 C.ar    1  UNL1       -0.0234
     24 C         140.4317  142.7624  167.0987 C.ar    1  UNL1       -0.0086
     25 C         140.4364  143.0155  165.6202 C.ar    1  UNL1       -0.0234
     26 C         141.7261  142.9692  164.8555 C.ar    1  UNL1       -0.0066
     27 C         141.7118  142.2100  169.2910 C.3     1  UNL1        0.0189
     28 C         142.8051  141.1971  169.1211 C.3     1  UNL1        0.0044
     29 C         140.6186  143.2228  169.4608 C.3     1  UNL1        0.0044
     30 C         141.7071  141.9569  170.7694 C.3     1  UNL1        0.0044
     31 C         139.1516  143.3149  164.9064 C.3     1  UNL1        0.0189
     32 C         139.0519  144.6227  165.6343 C.3     1  UNL1        0.0044
     33 C         139.2512  142.0071  164.1785 C.3     1  UNL1        0.0044
     34 C         137.8667  143.6142  164.1926 C.3     1  UNL1        0.0044
@<TRIPOS>BOND
     1    18    19    1
     2    19     6    1
     3     6     7   ar
     4     7     8   ar
     5     8     1    1
     6     1     2   ar
     7     2     3   ar
     8     3    20    1
     9    20    21    1
    10    21    22   ar
    11    22    23   ar
    12    23    27    1
    13    27    28    1
    14    27    29    1
    15    27    30    1
    16    23    24   ar
    17    24    25   ar
    18    25    31    1
    19    31    32    1
    20    31    33    1
    21    31    34    1
    22    25    26   ar
    23     3     4   ar
    24     4     5   ar
    25     8     9   ar
    26     9    10   ar
    27    10    11   ar
    28    11    12    1
    29    12    13   ar
    30    13    14   ar
    31    14    15   ar
    32    15    16    1
    33    15    17   ar
    34    11     6   ar
    35    17    12   ar
    36     5     1   ar
    37    26    21   ar
@<TRIPOS>MOLECULE
*****
 34 37 0 0 0
SMALL
GASTEIGER

@<TRIPOS>ATOM
      1 C         143.4304  142.5575  161.9686 C.ar    1  UNL1        0.1233
      2 C         142.8985  142.4954  163.3697 C.ar    1  UNL1        0.1179
      3 N         143.9163  141.7962  164.2214 N.ar    1  UNL1       -0.2257
      4 N         145.0773  141.4262  163.3466 N.ar    1  UNL1       -0.0635
      5 N         144.7770  141.8967  161.9543 N.ar    1  UNL1       -0.1287
      6 C         140.9599  144.8016  159.8213 C.ar    1  UNL1        0.1547
      7 C         141.6529  144.1866  161.0010 C.ar    1  UNL1        0.0400
      8 C         142.7375  143.1724  160.7889 C.ar    1  UNL1        0.0241
      9 C         143.1291  142.7731  159.3971 C.ar    1  UNL1        0.0033
     10 C         142.4362  143.3880  158.2174 C.ar    1  UNL1        0.0207
     11 C         141.3516  144.4022  158.4295 C.ar    1  UNL1        0.0994
     12 N         140.6586  145.0172  157.2498 N.ar    1  UNL1       -0.2839
     13 C         139.4054  144.5096  156.6002 C.ar    1  UNL1        0.1826
     14 N         139.0695  145.4264  155.4615 N.ar    1  UNL1       -0.2280
     15 C         140.1151  146.5006  155.4073 C.ar    1  UNL1        0.0786
     16 C         140.1691  147.6294  154.4210 C.3     1  UNL1        0.0538
     17 C         141.0972  146.2476  156.5125 C.ar    1  UNL1        0.0963
     18 C         139.5540  146.2916  161.4192 C.3     1  UNL1        0.2525
     19 O         139.8753  145.8158  160.0334 O.3     1  UNL1       -0.4700
     20 C         143.7945  141.5162  165.6900 C.3     1  UNL1        0.1556
     21 C         142.4760  141.0920  166.2658 C.ar    1  UNL1        0.0015
     22 C         141.9671  141.7302  167.5244 C.ar    1  UNL1       -0.0066
     23 C         140.6486  141.3059  168.1002 C.ar    1  UNL1       -0.0234
     24 C         139.8390  140.2436  167.4176 C.ar    1  UNL1       -0.0086
     25 C         140.3479  139.6054  166.1591 C.ar    1  UNL1       -0.0234
     26 C         141.6664  140.0297  165.5833 C.ar    1  UNL1       -0.0066
     27 C         140.1397  141.9441  169.3587 C.3     1  UNL1        0.0189
     28 C         139.6403  140.6114  169.8325 C.3     1  UNL1        0.0044
     29 C         140.6390  143.2768  168.8849 C.3     1  UNL1        0.0044
     30 C         139.6307  142.5822  170.6171 C.3     1  UNL1        0.0044
     31 C         139.5383  138.5430  165.4765 C.3     1  UNL1        0.0189
     32 C         138.3141  139.0044  166.2103 C.3     1  UNL1        0.0044
     33 C         140.7626  138.0816  164.7427 C.3     1  UNL1        0.0044
     34 C         138.7288  137.4807  164.7938 C.3     1  UNL1        0.0044
@<TRIPOS>BOND
     1    18    19    1
     2    19     6    1
     3     6     7   ar
     4     7     8   ar
     5     8     1    1
     6     1     2   ar
     7     2     3   ar
     8     3    20    1
     9    20    21    1
    10    21    22   ar
    11    22    23   ar
    12    23    27    1
    13    27    28    1
    14    27    29    1
    15    27    30    1
    16    23    24   ar
    17    24    25   ar
    18    25    31    1
    19    31    32    1
    20    31    33    1
    21    31    34    1
    22    25    26   ar
    23     3     4   ar
    24     4     5   ar
    25     8     9   ar
    26     9    10   ar
    27    10    11   ar
    28    11    12    1
    29    12    13   ar
    30    13    14   ar
    31    14    15   ar
    32    15    16    1
    33    15    17   ar
    34    11     6   ar
    35    17    12   ar
    36     5     1   ar
    37    26    21   ar
@<TRIPOS>MOLECULE
*****
 34 37 0 0 0
SMALL
GASTEIGER

@<TRIPOS>ATOM
      1 C         139.5252  141.4682  160.5634 C.ar    1  UNL1        0.1233
      2 C         139.7897  141.6392  162.0300 C.ar    1  UNL1        0.1179
      3 N         138.8335  142.6680  162.5566 N.ar    1  UNL1       -0.2257
      4 N         137.9780  143.1329  161.4154 N.ar    1  UNL1       -0.0635
      5 N         138.4056  142.3914  160.1836 N.ar    1  UNL1       -0.1287
      6 C         141.9410  138.5976  159.2696 C.ar    1  UNL1        0.1547
      7 C         141.2135  139.5283  160.1941 C.ar    1  UNL1        0.0400
      8 C         140.2527  140.5375  159.6389 C.ar    1  UNL1        0.0241
      9 C         140.0192  140.6161  158.1593 C.ar    1  UNL1        0.0033
     10 C         140.7467  139.6854  157.2348 C.ar    1  UNL1        0.0207
     11 C         141.7075  138.6762  157.7900 C.ar    1  UNL1        0.0994
     12 N         142.4350  137.7455  156.8655 N.ar    1  UNL1       -0.2839
     13 C         143.7463  138.0196  156.1908 C.ar    1  UNL1        0.1826
     14 N         144.1006  136.8208  155.3617 N.ar    1  UNL1       -0.2280
     15 C         143.0081  135.8057  155.5240 C.ar    1  UNL1        0.0786
     16 C         142.9545  134.4562  154.8714 C.3     1  UNL1        0.0538
     17 C         141.9787  136.3772  156.4534 C.ar    1  UNL1        0.0963
     18 C         143.5999  137.8539  161.1256 C.3     1  UNL1        0.2525
     19 O         142.9018  137.5884  159.8248 O.3     1  UNL1       -0.4700
     20 C         138.7478  143.1476  163.9752 C.3     1  UNL1        0.1556
     21 C         139.1183  142.2287  165.1014 C.ar    1  UNL1        0.0015
     22 C         140.0425  142.7032  166.1835 C.ar    1  UNL1       -0.0066
     23 C         140.4130  141.7842  167.3096 C.ar    1  UNL1       -0.0234
     24 C         139.8593  140.3908  167.3538 C.ar    1  UNL1       -0.0086
     25 C         138.9351  139.9164  166.2717 C.ar    1  UNL1       -0.0234
     26 C         138.5646  140.8354  165.1456 C.ar    1  UNL1       -0.0066
     27 C         141.3372  142.2586  168.3917 C.3     1  UNL1        0.0189
     28 C         140.2772  143.1983  168.8850 C.3     1  UNL1        0.0044
     29 C         142.3971  141.3189  167.8983 C.3     1  UNL1        0.0044
     30 C         142.2613  142.7330  169.4737 C.3     1  UNL1        0.0044
     31 C         138.3814  138.5230  166.3159 C.3     1  UNL1        0.0189
     32 C         139.0674  138.2094  165.0193 C.3     1  UNL1        0.0044
     33 C         137.6955  138.8366  167.6124 C.3     1  UNL1        0.0044
     34 C         137.8277  137.1296  166.3600 C.3     1  UNL1        0.0044
@<TRIPOS>BOND
     1    18    19    1
     2    19     6    1
     3     6     7   ar
     4     7     8   ar
     5     8     1    1
     6     1     2   ar
     7     2     3   ar
     8     3    20    1
     9    20    21    1
    10    21    22   ar
    11    22    23   ar
    12    23    27    1
    13    27    28    1
    14    27    29    1
    15    27    30    1
    16    23    24   ar
    17    24    25   ar
    18    25    31    1
    19    31    32    1
    20    31    33    1
    21    31    34    1
    22    25    26   ar
    23     3     4   ar
    24     4     5   ar
    25     8     9   ar
    26     9    10   ar
    27    10    11   ar
    28    11    12    1
    29    12    13   ar
    30    13    14   ar
    31    14    15   ar
    32    15    16    1
    33    15    17   ar
    34    11     6   ar
    35    17    12   ar
    36     5     1   ar
    37    26    21   ar
@<TRIPOS>MOLECULE
*****
 34 37 0 0 0
SMALL
GASTEIGER

@<TRIPOS>ATOM
      1 C         142.7072  144.0093  162.3453 C.ar    1  UNL1        0.1233
      2 C         142.5028  142.8382  163.2601 C.ar    1  UNL1        0.1179
      3 N         143.3944  143.0204  164.4525 N.ar    1  UNL1       -0.2257
      4 N         144.1499  144.3041  164.2746 N.ar    1  UNL1       -0.0635
      5 N         143.7251  144.9152  162.9723 N.ar    1  UNL1       -0.1287
      6 C         141.7635  143.7064  158.5024 C.ar    1  UNL1        0.1547
      7 C         142.4555  143.4809  159.8139 C.ar    1  UNL1        0.0400
      8 C         142.0151  144.2348  161.0337 C.ar    1  UNL1        0.0241
      9 C         140.8827  145.2142  160.9418 C.ar    1  UNL1        0.0033
     10 C         140.1907  145.4397  159.6303 C.ar    1  UNL1        0.0207
     11 C         140.6311  144.6858  158.4105 C.ar    1  UNL1        0.0994
     12 N         139.9391  144.9114  157.0989 N.ar    1  UNL1       -0.2839
     13 C         140.1583  146.0721  156.1745 C.ar    1  UNL1        0.1826
     14 N         139.2610  145.8939  154.9858 N.ar    1  UNL1       -0.2280
     15 C         138.4872  144.6229  155.1755 C.ar    1  UNL1        0.0786
     16 C         137.4725  144.0583  154.2260 C.3     1  UNL1        0.0538
     17 C         138.9063  144.0157  156.4815 C.ar    1  UNL1        0.0963
     18 C         142.3290  141.4586  157.3289 C.3     1  UNL1        0.2525
     19 O         142.2039  142.9526  157.2826 O.3     1  UNL1       -0.4700
     20 C         143.5102  142.0835  165.6182 C.3     1  UNL1        0.1556
     21 C         142.2736  141.5221  166.2550 C.ar    1  UNL1        0.0015
     22 C         141.5314  140.4002  165.5912 C.ar    1  UNL1       -0.0066
     23 C         140.2947  139.8388  166.2280 C.ar    1  UNL1       -0.0234
     24 C         139.8003  140.3993  167.5286 C.ar    1  UNL1       -0.0086
     25 C         140.5425  141.5211  168.1923 C.ar    1  UNL1       -0.0234
     26 C         141.7792  142.0825  167.5555 C.ar    1  UNL1       -0.0066
     27 C         139.5525  138.7169  165.5643 C.3     1  UNL1        0.0189
     28 C         138.2626  139.2392  166.1241 C.3     1  UNL1        0.0044
     29 C         140.8424  138.1947  165.0045 C.3     1  UNL1        0.0044
     30 C         138.8103  137.5951  164.9006 C.3     1  UNL1        0.0044
     31 C         140.0481  142.0816  169.4929 C.3     1  UNL1        0.0189
     32 C         140.5763  143.4327  169.1114 C.3     1  UNL1        0.0044
     33 C         139.5199  140.7304  169.8743 C.3     1  UNL1        0.0044
     34 C         139.5537  142.6420  170.7934 C.3     1  UNL1        0.0044
@<TRIPOS>BOND
     1    18    19    1
     2    19     6    1
     3     6     7   ar
     4     7     8   ar
     5     8     1    1
     6     1     2   ar
     7     2     3   ar
     8     3    20    1
     9    20    21    1
    10    21    22   ar
    11    22    23   ar
    12    23    27    1
    13    27    28    1
    14    27    29    1
    15    27    30    1
    16    23    24   ar
    17    24    25   ar
    18    25    31    1
    19    31    32    1
    20    31    33    1
    21    31    34    1
    22    25    26   ar
    23     3     4   ar
    24     4     5   ar
    25     8     9   ar
    26     9    10   ar
    27    10    11   ar
    28    11    12    1
    29    12    13   ar
    30    13    14   ar
    31    14    15   ar
    32    15    16    1
    33    15    17   ar
    34    11     6   ar
    35    17    12   ar
    36     5     1   ar
    37    26    21   ar
@<TRIPOS>MOLECULE
*****
 34 37 0 0 0
SMALL
GASTEIGER

@<TRIPOS>ATOM
      1 C         138.6673  141.2647  161.1278 C.ar    1  UNL1        0.1233
      2 C         138.7055  141.6054  162.5881 C.ar    1  UNL1        0.1179
      3 N         138.3050  140.3832  163.3599 N.ar    1  UNL1       -0.2257
      4 N         138.0193  139.2870  162.3766 N.ar    1  UNL1       -0.0635
      5 N         138.2433  139.8318  160.9971 N.ar    1  UNL1       -0.1287
      6 C         138.7196  142.8982  157.5113 C.ar    1  UNL1        0.1547
      7 C         138.3913  141.9693  158.6423 C.ar    1  UNL1        0.0400
      8 C         138.9956  142.1937  159.9968 C.ar    1  UNL1        0.0241
      9 C         139.9282  143.3471  160.2201 C.ar    1  UNL1        0.0033
     10 C         140.2564  144.2761  159.0891 C.ar    1  UNL1        0.0207
     11 C         139.6521  144.0516  157.7347 C.ar    1  UNL1        0.0994
     12 N         139.9804  144.9807  156.6037 N.ar    1  UNL1       -0.2839
     13 C         140.9626  144.7153  155.5014 C.ar    1  UNL1        0.1826
     14 N         140.9733  145.9088  154.5929 N.ar    1  UNL1       -0.2280
     15 C         139.9978  146.9118  155.1336 C.ar    1  UNL1        0.0786
     16 C         139.6899  148.2529  154.5364 C.3     1  UNL1        0.0538
     17 C         139.3841  146.3382  156.3763 C.ar    1  UNL1        0.0963
     18 C         136.8853  143.4297  155.7498 C.3     1  UNL1        0.2525
     19 O         138.1153  142.6738  156.1569 O.3     1  UNL1       -0.4700
     20 C         138.2073  140.2759  164.8529 C.3     1  UNL1        0.1556
     21 C         139.4499  140.1036  165.6753 C.ar    1  UNL1        0.0015
     22 C         140.7754  139.9106  165.0001 C.ar    1  UNL1       -0.0066
     23 C         142.0180  139.7384  165.8226 C.ar    1  UNL1       -0.0234
     24 C         141.9350  139.7592  167.3201 C.ar    1  UNL1       -0.0086
     25 C         140.6095  139.9522  167.9953 C.ar    1  UNL1       -0.0234
     26 C         139.3670  140.1244  167.1728 C.ar    1  UNL1       -0.0066
     27 C         143.3434  139.5453  165.1474 C.3     1  UNL1        0.0189
     28 C         143.0655  140.7255  164.2643 C.3     1  UNL1        0.0044
     29 C         143.6214  138.3652  166.0306 C.3     1  UNL1        0.0044
     30 C         144.6689  139.3523  164.4723 C.3     1  UNL1        0.0044
     31 C         140.5266  139.9730  169.4928 C.3     1  UNL1        0.0189
     32 C         141.9651  139.5568  169.5783 C.3     1  UNL1        0.0044
     33 C         139.0880  140.3892  169.4074 C.3     1  UNL1        0.0044
     34 C         140.4436  139.9938  170.9904 C.3     1  UNL1        0.0044
@<TRIPOS>BOND
     1    18    19    1
     2    19     6    1
     3     6     7   ar
     4     7     8   ar
     5     8     1    1
     6     1     2   ar
     7     2     3   ar
     8     3    20    1
     9    20    21    1
    10    21    22   ar
    11    22    23   ar
    12    23    27    1
    13    27    28    1
    14    27    29    1
    15    27    30    1
    16    23    24   ar
    17    24    25   ar
    18    25    31    1
    19    31    32    1
    20    31    33    1
    21    31    34    1
    22    25    26   ar
    23     3     4   ar
    24     4     5   ar
    25     8     9   ar
    26     9    10   ar
    27    10    11   ar
    28    11    12    1
    29    12    13   ar
    30    13    14   ar
    31    14    15   ar
    32    15    16    1
    33    15    17   ar
    34    11     6   ar
    35    17    12   ar
    36     5     1   ar
    37    26    21   ar
@<TRIPOS>MOLECULE
*****
 34 37 0 0 0
SMALL
GASTEIGER

@<TRIPOS>ATOM
      1 C         138.5941  140.0537  161.3394 C.ar    1  UNL1        0.1233
      2 C         138.5733  140.5170  162.7658 C.ar    1  UNL1        0.1179
      3 N         138.4254  139.3095  163.6433 N.ar    1  UNL1       -0.2257
      4 N         138.3548  138.0998  162.7592 N.ar    1  UNL1       -0.0635
      5 N         138.4591  138.5598  161.3352 N.ar    1  UNL1       -0.1287
      6 C         139.2717  143.2409  159.0738 C.ar    1  UNL1        0.1547
      7 C         139.1392  142.3642  160.2837 C.ar    1  UNL1        0.0400
      8 C         138.7266  140.9303  160.1294 C.ar    1  UNL1        0.0241
      9 C         138.4466  140.3731  158.7652 C.ar    1  UNL1        0.0033
     10 C         138.5791  141.2498  157.5553 C.ar    1  UNL1        0.0207
     11 C         138.9916  142.6836  157.7096 C.ar    1  UNL1        0.0994
     12 N         139.1242  143.5603  156.4996 N.ar    1  UNL1       -0.2839
     13 C         137.9938  144.1671  155.7224 C.ar    1  UNL1        0.1826
     14 N         138.5814  144.9659  154.5969 N.ar    1  UNL1       -0.2280
     15 C         140.0749  144.8526  154.6785 C.ar    1  UNL1        0.0786
     16 C         141.0600  145.4953  153.7475 C.3     1  UNL1        0.0538
     17 C         140.4103  143.9839  155.8544 C.ar    1  UNL1        0.0963
     18 C         141.1332  145.0244  159.3956 C.3     1  UNL1        0.2525
     19 O         139.6842  144.6747  159.2281 O.3     1  UNL1       -0.4700
     20 C         138.3597  139.3113  165.1419 C.3     1  UNL1        0.1556
     21 C         139.6165  139.4578  165.9476 C.ar    1  UNL1        0.0015
     22 C         140.9538  139.2982  165.2869 C.ar    1  UNL1       -0.0066
     23 C         142.2105  139.4447  166.0926 C.ar    1  UNL1       -0.0234
     24 C         142.1301  139.7507  167.5588 C.ar    1  UNL1       -0.0086
     25 C         140.7929  139.9103  168.2194 C.ar    1  UNL1       -0.0234
     26 C         139.5361  139.7638  167.4137 C.ar    1  UNL1       -0.0066
     27 C         143.5477  139.2851  165.4320 C.3     1  UNL1        0.0189
     28 C         143.2341  140.4337  164.5197 C.3     1  UNL1        0.0044
     29 C         143.8613  138.1364  166.3443 C.3     1  UNL1        0.0044
     30 C         144.8849  139.1255  164.7714 C.3     1  UNL1        0.0044
     31 C         140.7124  140.2164  169.6857 C.3     1  UNL1        0.0189
     32 C         139.2476  140.5071  169.5446 C.3     1  UNL1        0.0044
     33 C         142.1772  139.9256  169.8267 C.3     1  UNL1        0.0044
     34 C         140.6320  140.5224  171.1519 C.3     1  UNL1        0.0044
@<TRIPOS>BOND
     1    18    19    1
     2    19     6    1
     3     6     7   ar
     4     7     8   ar
     5     8     1    1
     6     1     2   ar
     7     2     3   ar
     8     3    20    1
     9    20    21    1
    10    21    22   ar
    11    22    23   ar
    12    23    27    1
    13    27    28    1
    14    27    29    1
    15    27    30    1
    16    23    24   ar
    17    24    25   ar
    18    25    31    1
    19    31    32    1
    20    31    33    1
    21    31    34    1
    22    25    26   ar
    23     3     4   ar
    24     4     5   ar
    25     8     9   ar
    26     9    10   ar
    27    10    11   ar
    28    11    12    1
    29    12    13   ar
    30    13    14   ar
    31    14    15   ar
    32    15    16    1
    33    15    17   ar
    34    11     6   ar
    35    17    12   ar
    36     5     1   ar
    37    26    21   ar
