@<TRIPOS>MOLECULE
*****
 35 38 0 0 0
SMALL
GASTEIGER

@<TRIPOS>ATOM
      1 C         139.4625  139.5423  162.0466 C.ar    1  UNL1        0.0594
      2 C         139.8364  138.1490  161.6359 C.ar    1  UNL1        0.1021
      3 N         140.3625  137.1823  162.6551 N.ar    1  UNL1       -0.2409
      4 C         140.5148  137.6091  164.0850 C.ar    1  UNL1        0.1135
      5 C         140.1410  139.0024  164.4957 C.ar    1  UNL1        0.0699
      6 C         139.6148  139.9691  163.4766 C.ar    1  UNL1        0.0210
      7 N         140.2932  139.4292  165.9256 N.am    1  UNL1       -0.2824
      8 C         139.0973  139.4598  166.8307 C.2     1  UNL1        0.2306
      9 O         137.7492  139.0636  166.3057 O.2     1  UNL1       -0.2744
     10 H         141.1781  139.6893  166.2702 H       1  UNL1        0.1549
     11 C         139.2496  139.8866  168.2606 C.3     1  UNL1        0.1116
     12 C         140.5165  140.5488  168.7147 C.ar    1  UNL1       -0.0130
     13 C         141.5699  139.7481  169.4213 C.ar    1  UNL1       -0.0029
     14 C         142.8368  140.4105  169.8753 C.ar    1  UNL1        0.0111
     15 C         143.0505  141.8736  169.6228 C.ar    1  UNL1        0.0577
     16 CL        144.3174  142.5359  170.0768 Cl      1  UNL1       -0.0822
     17 C         141.9972  142.6743  168.9161 C.ar    1  UNL1        0.0111
     18 C         140.7302  142.0119  168.4620 C.ar    1  UNL1       -0.0029
     19 C         138.9363  140.5090  161.0274 C.2     1  UNL1        0.1987
     20 O         137.5801  140.2971  160.4229 O.2     1  UNL1       -0.2865
     21 N         141.4505  143.0573  159.5273 N.ar    1  UNL1       -0.3132
     22 C         140.9123  141.6622  159.6451 C.ar    1  UNL1        0.0803
     23 C         139.7665  141.6876  160.6128 C.ar    1  UNL1        0.0618
     24 C         139.5965  143.0984  161.0931 C.ar    1  UNL1        0.0699
     25 C         138.6285  143.7215  162.0547 C.ar    1  UNL1        0.1301
     26 N         137.5877  142.8749  162.7255 N.pl3   1  UNL1       -0.3425
     27 N         138.7014  145.1912  162.3454 N.ar    1  UNL1       -0.2094
     28 C         139.7421  146.0378  161.6745 C.ar    1  UNL1        0.2014
     29 N         140.7101  145.4147  160.7130 N.ar    1  UNL1       -0.2065
     30 C         140.6373  143.9450  160.4223 C.ar    1  UNL1        0.1483
     31 H         137.5400  141.9103  162.5347 H       1  UNL1        0.1437
     32 H         136.9524  143.2839  163.3566 H       1  UNL1        0.1437
     33 C         143.9378  142.8265  158.8130 C.3     1  UNL1        0.0245
     34 C         142.6001  143.4891  158.6659 C.3     1  UNL1        0.0870
     35 C         142.4120  144.5834  157.6574 C.3     1  UNL1        0.0245
@<TRIPOS>BOND
     1    33    34    1
     2    34    35    1
     3    34    21    1
     4    21    22   ar
     5    22    23   ar
     6    23    19    1
     7    19    20    2
     8    19     1    1
     9     1     2   ar
    10     2     3   ar
    11     3     4   ar
    12     4     5   ar
    13     5     7    1
    14     7     8   am
    15     8     9    2
    16     8    11    1
    17    11    12    1
    18    12    13   ar
    19    13    14   ar
    20    14    15   ar
    21    15    16    1
    22    15    17   ar
    23    17    18   ar
    24     5     6   ar
    25    23    24   ar
    26    24    25   ar
    27    25    26    1
    28    25    27   ar
    29    27    28   ar
    30    28    29   ar
    31    29    30   ar
    32    30    21   ar
    33     6     1   ar
    34    30    24   ar
    35    18    12   ar
    36     7    10    1
    37    26    31    1
    38    26    32    1
@<TRIPOS>MOLECULE
*****
 35 38 0 0 0
SMALL
GASTEIGER

@<TRIPOS>ATOM
      1 C         140.2636  144.9363  159.4956 C.ar    1  UNL1        0.0594
      2 C         140.1880  143.4868  159.1175 C.ar    1  UNL1        0.1021
      3 N         140.3276  143.0781  157.6810 N.ar    1  UNL1       -0.2409
      4 C         140.5428  144.1191  156.6227 C.ar    1  UNL1        0.1135
      5 C         140.6185  145.5686  157.0008 C.ar    1  UNL1        0.0699
      6 C         140.4789  145.9773  158.4373 C.ar    1  UNL1        0.0210
      7 N         140.8337  146.6096  155.9425 N.am    1  UNL1       -0.2824
      8 C         139.6960  147.0268  155.0584 C.2     1  UNL1        0.2306
      9 O         138.3430  146.4030  155.2327 O.2     1  UNL1       -0.2744
     10 H         141.7217  147.0190  155.8281 H       1  UNL1        0.1549
     11 C         139.9112  148.0678  154.0001 C.3     1  UNL1        0.1116
     12 C         139.4694  149.4813  154.2377 C.ar    1  UNL1       -0.0130
     13 C         139.6392  150.5114  153.1606 C.ar    1  UNL1       -0.0029
     14 C         139.1973  151.9250  153.3984 C.ar    1  UNL1        0.0111
     15 C         138.5856  152.3086  154.7132 C.ar    1  UNL1        0.0577
     16 CL        138.1438  153.7222  154.9509 Cl      1  UNL1       -0.0822
     17 C         138.4159  151.2785  155.7903 C.ar    1  UNL1        0.0111
     18 C         138.8578  149.8649  155.5526 C.ar    1  UNL1       -0.0029
     19 C         140.1240  145.3450  160.9322 C.2     1  UNL1        0.1987
     20 O         139.2750  146.5266  161.2966 O.2     1  UNL1       -0.2865
     21 N         142.5856  143.5786  163.3581 N.ar    1  UNL1       -0.3132
     22 C         142.3194  144.4351  162.1559 C.ar    1  UNL1        0.0803
     23 C         140.8334  144.5719  162.0042 C.ar    1  UNL1        0.0618
     24 C         140.1812  143.7999  163.1127 C.ar    1  UNL1        0.0699
     25 C         138.7412  143.5767  163.4682 C.ar    1  UNL1        0.1301
     26 N         137.6582  144.1906  162.6314 N.pl3   1  UNL1       -0.3425
     27 N         138.3841  142.7395  164.6605 N.ar    1  UNL1       -0.2094
     28 C         139.4671  142.1256  165.4973 C.ar    1  UNL1        0.2014
     29 N         140.9071  142.3488  165.1418 N.ar    1  UNL1       -0.2065
     30 C         141.2642  143.1860  163.9495 C.ar    1  UNL1        0.1483
     31 H         137.8925  144.7401  161.8488 H       1  UNL1        0.1437
     32 H         136.7130  144.0441  162.8647 H       1  UNL1        0.1437
     33 C         144.8581  142.3642  163.0243 C.3     1  UNL1        0.0245
     34 C         143.9362  143.1838  163.8779 C.3     1  UNL1        0.0870
     35 C         144.3650  143.6087  165.2510 C.3     1  UNL1        0.0245
@<TRIPOS>BOND
     1    33    34    1
     2    34    35    1
     3    34    21    1
     4    21    22   ar
     5    22    23   ar
     6    23    19    1
     7    19    20    2
     8    19     1    1
     9     1     2   ar
    10     2     3   ar
    11     3     4   ar
    12     4     5   ar
    13     5     7    1
    14     7     8   am
    15     8     9    2
    16     8    11    1
    17    11    12    1
    18    12    13   ar
    19    13    14   ar
    20    14    15   ar
    21    15    16    1
    22    15    17   ar
    23    17    18   ar
    24     5     6   ar
    25    23    24   ar
    26    24    25   ar
    27    25    26    1
    28    25    27   ar
    29    27    28   ar
    30    28    29   ar
    31    29    30   ar
    32    30    21   ar
    33     6     1   ar
    34    30    24   ar
    35    18    12   ar
    36     7    10    1
    37    26    31    1
    38    26    32    1
@<TRIPOS>MOLECULE
*****
 35 38 0 0 0
SMALL
GASTEIGER

@<TRIPOS>ATOM
      1 C         141.0610  144.8930  160.4319 C.ar    1  UNL1        0.0594
      2 C         142.1307  143.8417  160.4534 C.ar    1  UNL1        0.1021
      3 N         142.9663  143.5968  159.2321 N.ar    1  UNL1       -0.2409
      4 C         142.7323  144.4033  157.9892 C.ar    1  UNL1        0.1135
      5 C         141.6625  145.4546  157.9677 C.ar    1  UNL1        0.0699
      6 C         140.8269  145.6995  159.1890 C.ar    1  UNL1        0.0210
      7 N         141.4285  146.2611  156.7248 N.am    1  UNL1       -0.2824
      8 C         140.2331  145.9809  155.8629 C.2     1  UNL1        0.2306
      9 O         139.2720  144.8942  156.2439 O.2     1  UNL1       -0.2744
     10 H         142.0593  146.9744  156.4747 H       1  UNL1        0.1549
     11 C         139.9991  146.7874  154.6200 C.3     1  UNL1        0.1116
     12 C         139.5902  148.2266  154.7259 C.ar    1  UNL1       -0.0130
     13 C         138.8077  148.6985  155.9154 C.ar    1  UNL1       -0.0029
     14 C         138.3989  150.1378  156.0212 C.ar    1  UNL1        0.0111
     15 C         138.7725  151.1054  154.9375 C.ar    1  UNL1        0.0577
     16 CL        138.3637  152.5446  155.0434 Cl      1  UNL1       -0.0822
     17 C         139.5550  150.6335  153.7480 C.ar    1  UNL1        0.0111
     18 C         139.9639  149.1941  153.6421 C.ar    1  UNL1       -0.0029
     19 C         140.2253  145.1378  161.6533 C.2     1  UNL1        0.1987
     20 O         139.3864  146.3774  161.7519 O.2     1  UNL1       -0.2865
     21 N         140.7979  142.9828  164.8302 N.ar    1  UNL1       -0.3132
     22 C         141.1437  144.1578  163.9644 C.ar    1  UNL1        0.0803
     23 C         140.2285  144.1431  162.7760 C.ar    1  UNL1        0.0618
     24 C         139.3171  142.9590  162.9075 C.ar    1  UNL1        0.0699
     25 C         138.2122  142.4412  162.0351 C.ar    1  UNL1        0.1301
     26 N         137.8603  143.1583  160.7655 N.pl3   1  UNL1       -0.3425
     27 N         137.4592  141.2062  162.4324 N.ar    1  UNL1       -0.2094
     28 C         137.8111  140.4891  163.7020 C.ar    1  UNL1        0.2014
     29 N         138.9160  141.0069  164.5743 N.ar    1  UNL1       -0.2065
     30 C         139.6690  142.2419  164.1771 C.ar    1  UNL1        0.1483
     31 H         138.3545  143.9689  160.5048 H       1  UNL1        0.1437
     32 H         137.1351  142.8185  160.1930 H       1  UNL1        0.1437
     33 C         142.9134  142.2269  166.1355 C.3     1  UNL1        0.0245
     34 C         141.4641  142.6134  166.1225 C.3     1  UNL1        0.0870
     35 C         140.6810  142.6306  167.4017 C.3     1  UNL1        0.0245
@<TRIPOS>BOND
     1    33    34    1
     2    34    35    1
     3    34    21    1
     4    21    22   ar
     5    22    23   ar
     6    23    19    1
     7    19    20    2
     8    19     1    1
     9     1     2   ar
    10     2     3   ar
    11     3     4   ar
    12     4     5   ar
    13     5     7    1
    14     7     8   am
    15     8     9    2
    16     8    11    1
    17    11    12    1
    18    12    13   ar
    19    13    14   ar
    20    14    15   ar
    21    15    16    1
    22    15    17   ar
    23    17    18   ar
    24     5     6   ar
    25    23    24   ar
    26    24    25   ar
    27    25    26    1
    28    25    27   ar
    29    27    28   ar
    30    28    29   ar
    31    29    30   ar
    32    30    21   ar
    33     6     1   ar
    34    30    24   ar
    35    18    12   ar
    36     7    10    1
    37    26    31    1
    38    26    32    1
@<TRIPOS>MOLECULE
*****
 35 38 0 0 0
SMALL
GASTEIGER

@<TRIPOS>ATOM
      1 C         143.0468  140.7210  159.5791 C.ar    1  UNL1        0.0594
      2 C         143.4210  139.9107  158.3736 C.ar    1  UNL1        0.1021
      3 N         143.2249  138.4236  158.3790 N.ar    1  UNL1       -0.2409
      4 C         142.6545  137.7468  159.5901 C.ar    1  UNL1        0.1135
      5 C         142.2803  138.5572  160.7956 C.ar    1  UNL1        0.0699
      6 C         142.4764  140.0442  160.7902 C.ar    1  UNL1        0.0210
      7 N         141.7099  137.8804  162.0067 N.am    1  UNL1       -0.2824
      8 C         140.2776  138.1095  162.3891 C.2     1  UNL1        0.2306
      9 O         139.4158  139.0154  161.5605 O.2     1  UNL1       -0.2744
     10 H         142.2756  137.2858  162.5505 H       1  UNL1        0.1549
     11 C         139.7073  137.4328  163.6002 C.3     1  UNL1        0.1116
     12 C         139.6063  138.1781  164.8980 C.ar    1  UNL1       -0.0130
     13 C         138.3482  138.1014  165.7111 C.ar    1  UNL1       -0.0029
     14 C         138.2473  138.8467  167.0089 C.ar    1  UNL1        0.0111
     15 C         139.4046  139.6688  167.4936 C.ar    1  UNL1        0.0577
     16 CL        139.3037  140.4141  168.7914 Cl      1  UNL1       -0.0822
     17 C         140.6628  139.7454  166.6806 C.ar    1  UNL1        0.0111
     18 C         140.7637  139.0001  165.3827 C.ar    1  UNL1       -0.0029
     19 C         143.2429  142.2082  159.5736 C.2     1  UNL1        0.1987
     20 O         144.0852  142.8496  158.5111 O.2     1  UNL1       -0.2865
     21 N         141.0018  144.4464  161.8171 N.ar    1  UNL1       -0.3132
     22 C         141.2453  143.6986  160.5398 C.ar    1  UNL1        0.0803
     23 C         142.5967  143.0539  160.6306 C.ar    1  UNL1        0.0618
     24 C         143.1883  143.4032  161.9640 C.ar    1  UNL1        0.0699
     25 C         144.4972  143.0489  162.6051 C.ar    1  UNL1        0.1301
     26 N         145.4829  142.1882  161.8718 N.pl3   1  UNL1       -0.3425
     27 N         144.8205  143.5551  163.9795 N.ar    1  UNL1       -0.2094
     28 C         143.8348  144.4158  164.7128 C.ar    1  UNL1        0.2014
     29 N         142.5259  144.7702  164.0717 N.ar    1  UNL1       -0.2065
     30 C         142.2027  144.2639  162.6973 C.ar    1  UNL1        0.1483
     31 H         145.2707  141.8559  160.9697 H       1  UNL1        0.1437
     32 H         146.3420  141.9556  162.2926 H       1  UNL1        0.1437
     33 C         139.4887  146.5240  161.4372 C.3     1  UNL1        0.0245
     34 C         139.7732  145.2378  162.1549 C.3     1  UNL1        0.0870
     35 C         138.8291  144.7433  163.2103 C.3     1  UNL1        0.0245
@<TRIPOS>BOND
     1    33    34    1
     2    34    35    1
     3    34    21    1
     4    21    22   ar
     5    22    23   ar
     6    23    19    1
     7    19    20    2
     8    19     1    1
     9     1     2   ar
    10     2     3   ar
    11     3     4   ar
    12     4     5   ar
    13     5     7    1
    14     7     8   am
    15     8     9    2
    16     8    11    1
    17    11    12    1
    18    12    13   ar
    19    13    14   ar
    20    14    15   ar
    21    15    16    1
    22    15    17   ar
    23    17    18   ar
    24     5     6   ar
    25    23    24   ar
    26    24    25   ar
    27    25    26    1
    28    25    27   ar
    29    27    28   ar
    30    28    29   ar
    31    29    30   ar
    32    30    21   ar
    33     6     1   ar
    34    30    24   ar
    35    18    12   ar
    36     7    10    1
    37    26    31    1
    38    26    32    1
@<TRIPOS>MOLECULE
*****
 35 38 0 0 0
SMALL
GASTEIGER

@<TRIPOS>ATOM
      1 C         143.0776  140.7237  159.3277 C.ar    1  UNL1        0.0594
      2 C         143.3585  139.9322  158.0849 C.ar    1  UNL1        0.1021
      3 N         143.1535  138.4463  158.0797 N.ar    1  UNL1       -0.2409
      4 C         142.6676  137.7520  159.3173 C.ar    1  UNL1        0.1135
      5 C         142.3867  138.5435  160.5601 C.ar    1  UNL1        0.0699
      6 C         142.5917  140.0294  160.5653 C.ar    1  UNL1        0.0210
      7 N         141.9008  137.8492  161.7978 N.am    1  UNL1       -0.2824
      8 C         140.4822  138.0295  162.2510 C.2     1  UNL1        0.2306
      9 O         139.5497  138.9041  161.4665 O.2     1  UNL1       -0.2744
     10 H         142.5129  137.2751  162.3126 H       1  UNL1        0.1549
     11 C         139.9963  137.3351  163.4886 C.3     1  UNL1        0.1116
     12 C         139.8328  138.1053  164.7654 C.ar    1  UNL1       -0.0130
     13 C         140.9903  138.8729  165.3318 C.ar    1  UNL1       -0.0029
     14 C         140.8266  139.6430  166.6085 C.ar    1  UNL1        0.0111
     15 C         139.5055  139.6456  167.3189 C.ar    1  UNL1        0.0577
     16 CL        139.3419  140.4157  168.5957 Cl      1  UNL1       -0.0822
     17 C         138.3480  138.8779  166.7525 C.ar    1  UNL1        0.0111
     18 C         138.5116  138.1077  165.4757 C.ar    1  UNL1       -0.0029
     19 C         143.2826  142.2097  159.3328 C.2     1  UNL1        0.1987
     20 O         143.7326  142.9090  158.0845 O.2     1  UNL1       -0.2865
     21 N         143.2652  143.8938  162.8298 N.ar    1  UNL1       -0.3132
     22 C         143.8720  142.9523  161.8321 C.ar    1  UNL1        0.0803
     23 C         143.0376  142.9963  160.5864 C.ar    1  UNL1        0.0618
     24 C         141.9152  143.9650  160.8141 C.ar    1  UNL1        0.0699
     25 C         140.7833  144.4136  159.9382 C.ar    1  UNL1        0.1301
     26 N         140.6426  143.8589  158.5516 N.pl3   1  UNL1       -0.3425
     27 N         139.7920  145.4169  160.4487 N.ar    1  UNL1       -0.2094
     28 C         139.9327  145.9715  161.8353 C.ar    1  UNL1        0.2014
     29 N         141.0646  145.5229  162.7113 N.ar    1  UNL1       -0.2065
     30 C         142.0559  144.5196  162.2007 C.ar    1  UNL1        0.1483
     31 H         141.2932  143.2004  158.2165 H       1  UNL1        0.1437
     32 H         139.8996  144.1533  157.9767 H       1  UNL1        0.1437
     33 C         144.0611  145.5697  164.6487 C.3     1  UNL1        0.0245
     34 C         143.7778  144.1623  164.2137 C.3     1  UNL1        0.0870
     35 C         144.0071  143.0236  165.1627 C.3     1  UNL1        0.0245
@<TRIPOS>BOND
     1    33    34    1
     2    34    35    1
     3    34    21    1
     4    21    22   ar
     5    22    23   ar
     6    23    19    1
     7    19    20    2
     8    19     1    1
     9     1     2   ar
    10     2     3   ar
    11     3     4   ar
    12     4     5   ar
    13     5     7    1
    14     7     8   am
    15     8     9    2
    16     8    11    1
    17    11    12    1
    18    12    13   ar
    19    13    14   ar
    20    14    15   ar
    21    15    16    1
    22    15    17   ar
    23    17    18   ar
    24     5     6   ar
    25    23    24   ar
    26    24    25   ar
    27    25    26    1
    28    25    27   ar
    29    27    28   ar
    30    28    29   ar
    31    29    30   ar
    32    30    21   ar
    33     6     1   ar
    34    30    24   ar
    35    18    12   ar
    36     7    10    1
    37    26    31    1
    38    26    32    1
@<TRIPOS>MOLECULE
*****
 35 38 0 0 0
SMALL
GASTEIGER

@<TRIPOS>ATOM
      1 C         140.2952  139.8517  161.3499 C.ar    1  UNL1        0.0594
      2 C         139.4694  139.0325  160.4028 C.ar    1  UNL1        0.1021
      3 N         138.5376  137.9840  160.9342 N.ar    1  UNL1       -0.2409
      4 C         138.4317  137.7547  162.4128 C.ar    1  UNL1        0.1135
      5 C         139.2574  138.5739  163.3599 C.ar    1  UNL1        0.0699
      6 C         140.1892  139.6224  162.8285 C.ar    1  UNL1        0.0210
      7 N         139.1515  138.3446  164.8385 N.am    1  UNL1       -0.2824
      8 C         138.5324  139.3909  165.7173 C.2     1  UNL1        0.2306
      9 O         138.0193  140.6664  165.1174 O.2     1  UNL1       -0.2744
     10 H         139.4882  137.5075  165.2322 H       1  UNL1        0.1549
     11 C         138.4264  139.1616  167.1959 C.3     1  UNL1        0.1116
     12 C         139.3548  139.8746  168.1337 C.ar    1  UNL1       -0.0130
     13 C         138.8968  140.2287  169.5175 C.ar    1  UNL1       -0.0029
     14 C         139.8253  140.9417  170.4553 C.ar    1  UNL1        0.0111
     15 C         141.2118  141.3006  170.0094 C.ar    1  UNL1        0.0577
     16 CL        142.1402  142.0136  170.9473 Cl      1  UNL1       -0.0822
     17 C         141.6698  140.9466  168.6257 C.ar    1  UNL1        0.0111
     18 C         140.7413  140.2335  167.6878 C.ar    1  UNL1       -0.0029
     19 C         141.2270  140.9002  160.8184 C.2     1  UNL1        0.1987
     20 O         141.7936  140.7687  159.4359 O.2     1  UNL1       -0.2865
     21 N         142.6970  143.4935  163.3042 N.ar    1  UNL1       -0.3132
     22 C         142.6854  142.1226  162.6956 C.ar    1  UNL1        0.0803
     23 C         141.5921  142.0802  161.6696 C.ar    1  UNL1        0.0618
     24 C         140.9279  143.4249  161.6441 C.ar    1  UNL1        0.0699
     25 C         139.7896  143.9668  160.8314 C.ar    1  UNL1        0.1301
     26 N         139.1067  143.0933  159.8211 N.pl3   1  UNL1       -0.3425
     27 N         139.3341  145.3822  161.0291 N.ar    1  UNL1       -0.2094
     28 C         140.0169  146.2557  162.0394 C.ar    1  UNL1        0.2014
     29 N         141.1553  145.7138  162.8520 N.ar    1  UNL1       -0.2065
     30 C         141.6108  144.2984  162.6544 C.ar    1  UNL1        0.1483
     31 H         139.4056  142.1643  159.6914 H       1  UNL1        0.1437
     32 H         138.3595  143.4490  159.2877 H       1  UNL1        0.1437
     33 C         144.0773  145.4070  164.3921 C.3     1  UNL1        0.0245
     34 C         143.6307  143.9750  164.3748 C.3     1  UNL1        0.0870
     35 C         144.1180  143.0248  165.4281 C.3     1  UNL1        0.0245
@<TRIPOS>BOND
     1    33    34    1
     2    34    35    1
     3    34    21    1
     4    21    22   ar
     5    22    23   ar
     6    23    19    1
     7    19    20    2
     8    19     1    1
     9     1     2   ar
    10     2     3   ar
    11     3     4   ar
    12     4     5   ar
    13     5     7    1
    14     7     8   am
    15     8     9    2
    16     8    11    1
    17    11    12    1
    18    12    13   ar
    19    13    14   ar
    20    14    15   ar
    21    15    16    1
    22    15    17   ar
    23    17    18   ar
    24     5     6   ar
    25    23    24   ar
    26    24    25   ar
    27    25    26    1
    28    25    27   ar
    29    27    28   ar
    30    28    29   ar
    31    29    30   ar
    32    30    21   ar
    33     6     1   ar
    34    30    24   ar
    35    18    12   ar
    36     7    10    1
    37    26    31    1
    38    26    32    1
@<TRIPOS>MOLECULE
*****
 35 38 0 0 0
SMALL
GASTEIGER

@<TRIPOS>ATOM
      1 C         142.5056  140.4052  160.6347 C.ar    1  UNL1        0.0594
      2 C         143.1814  139.5568  159.5986 C.ar    1  UNL1        0.1021
      3 N         143.7941  138.2440  159.9874 N.ar    1  UNL1       -0.2409
      4 C         143.7309  137.7797  161.4123 C.ar    1  UNL1        0.1135
      5 C         143.0552  138.6282  162.4484 C.ar    1  UNL1        0.0699
      6 C         142.4425  139.9409  162.0596 C.ar    1  UNL1        0.0210
      7 N         142.9920  138.1638  163.8733 N.am    1  UNL1       -0.2824
      8 C         143.5998  138.9983  164.9617 C.2     1  UNL1        0.2306
      9 O         144.2705  140.2971  164.6251 O.2     1  UNL1       -0.2744
     10 H         142.5518  137.3114  164.0943 H       1  UNL1        0.1549
     11 C         143.5366  138.5340  166.3867 C.3     1  UNL1        0.1116
     12 C         142.4886  139.0831  167.3086 C.ar    1  UNL1       -0.0130
     13 C         142.7164  139.0777  168.7911 C.ar    1  UNL1       -0.0029
     14 C         141.6683  139.6269  169.7130 C.ar    1  UNL1        0.0111
     15 C         140.3923  140.1815  169.1524 C.ar    1  UNL1        0.0577
     16 CL        139.3442  140.7306  170.0743 Cl      1  UNL1       -0.0822
     17 C         140.1644  140.1869  167.6698 C.ar    1  UNL1        0.0111
     18 C         141.2126  139.6377  166.7479 C.ar    1  UNL1       -0.0029
     19 C         141.8929  141.7181  160.2458 C.2     1  UNL1        0.1987
     20 O         141.7400  142.0744  158.7968 O.2     1  UNL1       -0.2865
     21 N         140.0220  143.9007  162.8537 N.ar    1  UNL1       -0.3132
     22 C         140.0242  142.8393  161.7937 C.ar    1  UNL1        0.0803
     23 C         141.4331  142.6745  161.3059 C.ar    1  UNL1        0.0618
     24 C         142.3015  143.6340  162.0644 C.ar    1  UNL1        0.0699
     25 C         143.7738  143.9155  162.0076 C.ar    1  UNL1        0.1301
     26 N         144.6459  143.1577  161.0510 N.pl3   1  UNL1       -0.3425
     27 N         144.3738  144.9548  162.9074 N.ar    1  UNL1       -0.2094
     28 C         143.5017  145.7127  163.8639 C.ar    1  UNL1        0.2014
     29 N         142.0294  145.4312  163.9207 N.ar    1  UNL1       -0.2065
     30 C         141.4294  144.3918  163.0210 C.ar    1  UNL1        0.1483
     31 H         144.2520  142.4755  160.4605 H       1  UNL1        0.1437
     32 H         145.6122  143.3424  161.0137 H       1  UNL1        0.1437
     33 C         138.9625  144.8077  165.0458 C.3     1  UNL1        0.0245
     34 C         138.8228  144.3858  163.6131 C.3     1  UNL1        0.0870
     35 C         137.4839  144.4490  162.9399 C.3     1  UNL1        0.0245
@<TRIPOS>BOND
     1    33    34    1
     2    34    35    1
     3    34    21    1
     4    21    22   ar
     5    22    23   ar
     6    23    19    1
     7    19    20    2
     8    19     1    1
     9     1     2   ar
    10     2     3   ar
    11     3     4   ar
    12     4     5   ar
    13     5     7    1
    14     7     8   am
    15     8     9    2
    16     8    11    1
    17    11    12    1
    18    12    13   ar
    19    13    14   ar
    20    14    15   ar
    21    15    16    1
    22    15    17   ar
    23    17    18   ar
    24     5     6   ar
    25    23    24   ar
    26    24    25   ar
    27    25    26    1
    28    25    27   ar
    29    27    28   ar
    30    28    29   ar
    31    29    30   ar
    32    30    21   ar
    33     6     1   ar
    34    30    24   ar
    35    18    12   ar
    36     7    10    1
    37    26    31    1
    38    26    32    1
@<TRIPOS>MOLECULE
*****
 35 38 0 0 0
SMALL
GASTEIGER

@<TRIPOS>ATOM
      1 C         138.9360  139.2882  160.3455 C.ar    1  UNL1        0.0594
      2 C         137.9739  140.2710  159.7468 C.ar    1  UNL1        0.1021
      3 N         137.9413  140.4793  158.2617 N.ar    1  UNL1       -0.2409
      4 C         138.8709  139.7047  157.3753 C.ar    1  UNL1        0.1135
      5 C         139.8330  138.7219  157.9739 C.ar    1  UNL1        0.0699
      6 C         139.8656  138.5136  159.4590 C.ar    1  UNL1        0.0210
      7 N         140.7627  137.9473  157.0875 N.am    1  UNL1       -0.2824
      8 C         140.2101  136.9678  156.0947 C.2     1  UNL1        0.2306
      9 O         138.7279  136.7631  155.9884 O.2     1  UNL1       -0.2744
     10 H         141.7354  138.0816  157.1572 H       1  UNL1        0.1549
     11 C         141.1397  136.1932  155.2082 C.3     1  UNL1        0.1116
     12 C         141.7874  134.9387  155.7148 C.ar    1  UNL1       -0.0130
     13 C         141.3391  133.6028  155.2007 C.ar    1  UNL1       -0.0029
     14 C         141.9869  132.3484  155.7073 C.ar    1  UNL1        0.0111
     15 C         143.0831  132.4297  156.7280 C.ar    1  UNL1        0.0577
     16 CL        143.7308  131.1753  157.2346 Cl      1  UNL1       -0.0822
     17 C         143.5314  133.7657  157.2421 C.ar    1  UNL1        0.0111
     18 C         142.8836  135.0202  156.7355 C.ar    1  UNL1       -0.0029
     19 C         138.9685  139.0799  161.8307 C.2     1  UNL1        0.1987
     20 O         138.2593  137.9066  162.4391 O.2     1  UNL1       -0.2865
     21 N         140.3508  142.0640  163.8921 N.ar    1  UNL1       -0.3132
     22 C         139.3360  141.4761  162.9570 C.ar    1  UNL1        0.0803
     23 C         139.7101  140.0451  162.7073 C.ar    1  UNL1        0.0618
     24 C         140.9561  139.7486  163.4881 C.ar    1  UNL1        0.0699
     25 C         141.7813  138.5037  163.6269 C.ar    1  UNL1        0.1301
     26 N         141.3853  137.2559  162.8946 N.pl3   1  UNL1       -0.3425
     27 N         143.0024  138.5066  164.4979 N.ar    1  UNL1       -0.2094
     28 C         143.3984  139.7544  165.2302 C.ar    1  UNL1        0.2014
     29 N         142.5732  140.9993  165.0914 N.ar    1  UNL1       -0.2065
     30 C         141.3521  140.9964  164.2204 C.ar    1  UNL1        0.1483
     31 H         140.5838  137.2541  162.3229 H       1  UNL1        0.1437
     32 H         141.9269  136.4389  162.9857 H       1  UNL1        0.1437
     33 C         141.5136  144.3791  164.0881 C.3     1  UNL1        0.0245
     34 C         140.3624  143.4723  164.4084 C.3     1  UNL1        0.0870
     35 C         139.2229  143.9739  165.2449 C.3     1  UNL1        0.0245
@<TRIPOS>BOND
     1    33    34    1
     2    34    35    1
     3    34    21    1
     4    21    22   ar
     5    22    23   ar
     6    23    19    1
     7    19    20    2
     8    19     1    1
     9     1     2   ar
    10     2     3   ar
    11     3     4   ar
    12     4     5   ar
    13     5     7    1
    14     7     8   am
    15     8     9    2
    16     8    11    1
    17    11    12    1
    18    12    13   ar
    19    13    14   ar
    20    14    15   ar
    21    15    16    1
    22    15    17   ar
    23    17    18   ar
    24     5     6   ar
    25    23    24   ar
    26    24    25   ar
    27    25    26    1
    28    25    27   ar
    29    27    28   ar
    30    28    29   ar
    31    29    30   ar
    32    30    21   ar
    33     6     1   ar
    34    30    24   ar
    35    18    12   ar
    36     7    10    1
    37    26    31    1
    38    26    32    1
@<TRIPOS>MOLECULE
*****
 35 38 0 0 0
SMALL
GASTEIGER

@<TRIPOS>ATOM
      1 C         141.3930  140.0270  160.2024 C.ar    1  UNL1        0.0594
      2 C         142.4846  139.7089  159.2240 C.ar    1  UNL1        0.1021
      3 N         143.7040  138.9622  159.6773 N.ar    1  UNL1       -0.2409
      4 C         143.8319  138.5337  161.1090 C.ar    1  UNL1        0.1135
      5 C         142.7403  138.8518  162.0875 C.ar    1  UNL1        0.0699
      6 C         141.5209  139.5984  161.6342 C.ar    1  UNL1        0.0210
      7 N         142.8682  138.4233  163.5193 N.am    1  UNL1       -0.2824
      8 C         143.2355  139.4263  164.5725 C.2     1  UNL1        0.2306
      9 O         143.4749  140.8579  164.1938 O.2     1  UNL1       -0.2744
     10 H         142.7111  137.4837  163.7678 H       1  UNL1        0.1549
     11 C         143.3634  138.9978  166.0042 C.3     1  UNL1        0.1116
     12 C         142.2961  139.3606  166.9938 C.ar    1  UNL1       -0.0130
     13 C         142.6083  139.3787  168.4608 C.ar    1  UNL1       -0.0029
     14 C         141.5409  139.7415  169.4503 C.ar    1  UNL1        0.0111
     15 C         140.1613  140.0863  168.9728 C.ar    1  UNL1        0.0577
     16 CL        139.0940  140.4491  169.9624 Cl      1  UNL1       -0.0822
     17 C         139.8491  140.0682  167.5058 C.ar    1  UNL1        0.0111
     18 C         140.9165  139.7054  166.5162 C.ar    1  UNL1       -0.0029
     19 C         140.1735  140.7736  159.7491 C.2     1  UNL1        0.1987
     20 O         138.8960  140.0334  159.4848 O.2     1  UNL1       -0.2865
     21 N         140.5558  144.4497  158.5636 N.ar    1  UNL1       -0.3132
     22 C         140.6455  142.9745  158.3074 C.ar    1  UNL1        0.0803
     23 C         140.2317  142.2605  159.5600 C.ar    1  UNL1        0.0618
     24 C         139.8862  143.2945  160.5903 C.ar    1  UNL1        0.0699
     25 C         139.4150  143.1788  162.0096 C.ar    1  UNL1        0.1301
     26 N         139.2147  141.8257  162.6255 N.pl3   1  UNL1       -0.3425
     27 N         139.1442  144.4160  162.8132 N.ar    1  UNL1       -0.2094
     28 C         139.3445  145.7691  162.1974 C.ar    1  UNL1        0.2014
     29 N         139.8157  145.8848  160.7780 N.ar    1  UNL1       -0.2065
     30 C         140.0865  144.6475  159.9745 C.ar    1  UNL1        0.1483
     31 H         139.3925  141.0137  162.0980 H       1  UNL1        0.1437
     32 H         138.9055  141.7498  163.5570 H       1  UNL1        0.1437
     33 C         139.7719  146.2641  156.8772 C.3     1  UNL1        0.0245
     34 C         140.8787  145.5364  157.5813 C.3     1  UNL1        0.0870
     35 C         142.3082  145.8956  157.3032 C.3     1  UNL1        0.0245
@<TRIPOS>BOND
     1    33    34    1
     2    34    35    1
     3    34    21    1
     4    21    22   ar
     5    22    23   ar
     6    23    19    1
     7    19    20    2
     8    19     1    1
     9     1     2   ar
    10     2     3   ar
    11     3     4   ar
    12     4     5   ar
    13     5     7    1
    14     7     8   am
    15     8     9    2
    16     8    11    1
    17    11    12    1
    18    12    13   ar
    19    13    14   ar
    20    14    15   ar
    21    15    16    1
    22    15    17   ar
    23    17    18   ar
    24     5     6   ar
    25    23    24   ar
    26    24    25   ar
    27    25    26    1
    28    25    27   ar
    29    27    28   ar
    30    28    29   ar
    31    29    30   ar
    32    30    21   ar
    33     6     1   ar
    34    30    24   ar
    35    18    12   ar
    36     7    10    1
    37    26    31    1
    38    26    32    1
