@<TRIPOS>MOLECULE
*****
 42 46 0 0 0
SMALL
GASTEIGER

@<TRIPOS>ATOM
      1 C         140.5186  138.7968  157.7389 C.3     1  UNL1        0.1035
      2 C         139.6766  138.1412  158.7931 C.3     1  UNL1        0.0933
      3 N         139.8221  139.3542  159.6635 N.3     1  UNL1       -0.2711
      4 C         140.6640  140.0097  158.6092 C.3     1  UNL1        0.0933
      5 C         139.3295  139.7484  161.0243 C.3     1  UNL1        0.0578
      6 C         138.1189  140.6236  161.1593 C.3     1  UNL1        0.0187
      7 C         137.6264  141.0178  162.5203 C.3     1  UNL1        0.0326
      8 C         138.3445  140.5368  163.7462 C.3     1  UNL1        0.1085
      9 O         137.2515  141.3420  164.3838 O.3     1  UNL1       -0.3826
     10 C         139.5552  139.6615  163.6112 C.3     1  UNL1        0.0326
     11 C         140.0477  139.2673  162.2503 C.3     1  UNL1        0.0187
     12 H         136.6888  141.7269  163.6938 H       1  UNL1        0.2107
     13 C         138.6831  140.3354  165.1935 C.ar    1  UNL1        0.0211
     14 C         139.6455  141.2627  165.8747 C.ar    1  UNL1        0.0043
     15 C         139.9840  141.0612  167.3220 C.ar    1  UNL1        0.0575
     16 C         139.3602  139.9325  168.0882 C.ar    1  UNL1        0.2247
     17 N         138.3979  139.0053  167.4071 N.ar    1  UNL1       -0.2104
     18 C         138.0592  139.2066  165.9597 C.ar    1  UNL1        0.1000
     19 O         139.6988  139.7312  169.5355 O.3     1  UNL1       -0.4640
     20 C         141.1171  139.8769  170.0013 C.3     1  UNL1        0.1676
     21 C         142.3585  139.0412  169.8983 C.3     1  UNL1        0.0437
     22 C         143.1231  140.0829  170.6601 C.3     1  UNL1        0.0074
     23 C         141.8817  140.9186  170.7631 C.3     1  UNL1        0.0437
     24 O         143.4431  138.3037  157.2866 O.2     1  UNL1       -0.2733
     25 C         142.4733  138.1560  156.1518 C.2     1  UNL1        0.2426
     26 N         141.0111  138.4025  156.3779 N.am    1  UNL1       -0.3018
     27 H         140.3746  138.3056  155.6331 H       1  UNL1        0.1495
     28 C         142.9657  137.7617  154.7910 C.3     1  UNL1        0.1759
     29 N         143.2978  136.3282  154.4997 N.am    1  UNL1       -0.2931
     30 C         142.2154  135.2899  154.5137 C.2     1  UNL1        0.2462
     31 O         140.8009  135.6850  154.8190 O.2     1  UNL1       -0.2701
     32 H         144.2261  136.0688  154.2994 H       1  UNL1        0.1502
     33 C         142.5474  133.8563  154.2224 C.ar    1  UNL1        0.0533
     34 C         142.2186  133.2676  152.8826 C.ar    1  UNL1        0.0045
     35 C         142.5506  131.8341  152.5914 C.ar    1  UNL1        0.0001
     36 C         143.2115  130.9894  153.6400 C.ar    1  UNL1        0.0039
     37 C         143.5403  131.5781  154.9799 C.ar    1  UNL1        0.0716
     38 C         143.2083  133.0115  155.2711 C.ar    1  UNL1        0.0084
     39 C         144.2011  130.7333  156.0285 C.3     1  UNL1        0.4186
     40 F         144.8620  129.8885  157.0772 F       1  UNL1       -0.1659
     41 F         145.2274  130.2930  155.0271 F       1  UNL1       -0.1659
     42 F         143.1749  131.1736  157.0300 F       1  UNL1       -0.1659
@<TRIPOS>BOND
     1    24    25    2
     2    25    28    1
     3    28    29    1
     4    29    30   am
     5    30    31    2
     6    30    33    1
     7    33    34   ar
     8    34    35   ar
     9    35    36   ar
    10    36    37   ar
    11    37    39    1
    12    39    40    1
    13    39    41    1
    14    39    42    1
    15    37    38   ar
    16    25    26   am
    17    26     1    1
    18     1     2    1
    19     2     3    1
    20     5     3    1
    21     5     6    1
    22     6     7    1
    23     7     8    1
    24     8     9    1
    25     8    13    1
    26    13    14   ar
    27    14    15   ar
    28    15    16   ar
    29    16    19    1
    30    19    20    1
    31    20    21    1
    32    21    22    1
    33    22    23    1
    34    16    17   ar
    35    17    18   ar
    36     8    10    1
    37    10    11    1
    38     3     4    1
    39    38    33   ar
    40     4     1    1
    41    11     5    1
    42    18    13   ar
    43    23    20    1
    44    29    32    1
    45    26    27    1
    46     9    12    1
@<TRIPOS>MOLECULE
*****
 42 46 0 0 0
SMALL
GASTEIGER

@<TRIPOS>ATOM
      1 C         138.8572  140.1112  158.0991 C.3     1  UNL1        0.1035
      2 C         138.8289  139.3127  159.3685 C.3     1  UNL1        0.0933
      3 N         140.1661  139.8742  159.7515 N.3     1  UNL1       -0.2711
      4 C         140.1944  140.6728  158.4821 C.3     1  UNL1        0.0933
      5 C         141.0916  139.7067  160.9200 C.3     1  UNL1        0.0578
      6 C         142.5034  139.2504  160.6991 C.3     1  UNL1        0.0187
      7 C         143.4289  139.0828  161.8677 C.3     1  UNL1        0.0326
      8 C         142.9426  139.3715  163.2569 C.3     1  UNL1        0.1085
      9 O         144.3560  138.9667  163.5545 O.3     1  UNL1       -0.3826
     10 C         141.5309  139.8278  163.4778 C.3     1  UNL1        0.0326
     11 C         140.6054  139.9954  162.3094 C.3     1  UNL1        0.0187
     12 H         144.8097  138.7442  162.7265 H       1  UNL1        0.2107
     13 C         142.9472  139.5197  164.7496 C.ar    1  UNL1        0.0211
     14 C         142.5800  140.8332  165.3741 C.ar    1  UNL1        0.0043
     15 C         142.5846  140.9813  166.8667 C.ar    1  UNL1        0.0575
     16 C         142.9564  139.8159  167.7349 C.ar    1  UNL1        0.2247
     17 N         143.3237  138.5025  167.1105 N.ar    1  UNL1       -0.2104
     18 C         143.3191  138.3543  165.6178 C.ar    1  UNL1        0.1000
     19 O         142.9610  139.9641  169.2275 O.3     1  UNL1       -0.4640
     20 C         142.9826  141.3307  169.8456 C.3     1  UNL1        0.1676
     21 C         143.9801  142.4490  169.9120 C.3     1  UNL1        0.0437
     22 C         143.0134  143.2634  170.7196 C.3     1  UNL1        0.0074
     23 C         142.0159  142.1450  170.6532 C.3     1  UNL1        0.0437
     24 O         137.6460  142.7935  157.5174 O.2     1  UNL1       -0.2733
     25 C         137.3260  141.6199  156.6398 C.2     1  UNL1        0.2426
     26 N         137.9316  140.2788  156.9306 N.am    1  UNL1       -0.3018
     27 H         137.7216  139.5085  156.3545 H       1  UNL1        0.1495
     28 C         136.4005  141.7874  155.4713 C.3     1  UNL1        0.1759
     29 N         134.9157  141.7896  155.6849 N.am    1  UNL1       -0.2931
     30 C         134.1776  140.4925  155.8348 C.2     1  UNL1        0.2462
     31 O         134.9242  139.1930  155.7711 O.2     1  UNL1       -0.2701
     32 H         134.4257  142.6425  155.7267 H       1  UNL1        0.1502
     33 C         132.6928  140.4947  156.0484 C.ar    1  UNL1        0.0533
     34 C         131.8215  141.4174  155.2489 C.ar    1  UNL1        0.0045
     35 C         130.3368  141.4197  155.4625 C.ar    1  UNL1        0.0001
     36 C         129.7235  140.4991  156.4756 C.ar    1  UNL1        0.0039
     37 C         130.5948  139.5764  157.2751 C.ar    1  UNL1        0.0716
     38 C         132.0795  139.5742  157.0615 C.ar    1  UNL1        0.0084
     39 C         129.9814  138.6558  158.2882 C.3     1  UNL1        0.4186
     40 F         129.3681  137.7353  159.3014 F       1  UNL1       -0.1659
     41 F         131.3449  138.1464  158.6508 F       1  UNL1       -0.1659
     42 F         128.6180  139.1653  157.9257 F       1  UNL1       -0.1659
@<TRIPOS>BOND
     1    24    25    2
     2    25    28    1
     3    28    29    1
     4    29    30   am
     5    30    31    2
     6    30    33    1
     7    33    34   ar
     8    34    35   ar
     9    35    36   ar
    10    36    37   ar
    11    37    39    1
    12    39    40    1
    13    39    41    1
    14    39    42    1
    15    37    38   ar
    16    25    26   am
    17    26     1    1
    18     1     2    1
    19     2     3    1
    20     5     3    1
    21     5     6    1
    22     6     7    1
    23     7     8    1
    24     8     9    1
    25     8    13    1
    26    13    14   ar
    27    14    15   ar
    28    15    16   ar
    29    16    19    1
    30    19    20    1
    31    20    21    1
    32    21    22    1
    33    22    23    1
    34    16    17   ar
    35    17    18   ar
    36     8    10    1
    37    10    11    1
    38     3     4    1
    39    38    33   ar
    40     4     1    1
    41    11     5    1
    42    18    13   ar
    43    23    20    1
    44    29    32    1
    45    26    27    1
    46     9    12    1
@<TRIPOS>MOLECULE
*****
 42 46 0 0 0
SMALL
GASTEIGER

@<TRIPOS>ATOM
      1 C         143.2756  142.7553  160.1864 C.3     1  UNL1        0.1035
      2 C         143.3466  143.3378  158.8059 C.3     1  UNL1        0.0933
      3 N         144.5361  142.4755  158.5032 N.3     1  UNL1       -0.2711
      4 C         144.4651  141.8930  159.8837 C.3     1  UNL1        0.0933
      5 C         145.4274  142.2776  157.3131 C.3     1  UNL1        0.0578
      6 C         144.9379  141.4937  156.1316 C.3     1  UNL1        0.0187
      7 C         145.8293  141.2959  154.9414 C.3     1  UNL1        0.0326
      8 C         147.2100  141.8819  154.9328 C.3     1  UNL1        0.1085
      9 O         147.1987  141.2220  153.5859 O.3     1  UNL1       -0.3826
     10 C         147.6994  142.6658  156.1143 C.3     1  UNL1        0.0326
     11 C         146.8082  142.8637  157.3044 C.3     1  UNL1        0.0187
     12 H         146.3427  140.7879  153.4457 H       1  UNL1        0.2107
     13 C         148.5868  142.2388  154.4564 C.ar    1  UNL1        0.0211
     14 C         149.7887  141.6133  155.1001 C.ar    1  UNL1        0.0043
     15 C         151.1656  141.9701  154.6237 C.ar    1  UNL1        0.0575
     16 C         151.3405  142.9525  153.5036 C.ar    1  UNL1        0.2247
     17 N         150.1387  143.5779  152.8600 N.ar    1  UNL1       -0.2104
     18 C         148.7618  143.2211  153.3364 C.ar    1  UNL1        0.1000
     19 O         152.7174  143.3093  153.0273 O.3     1  UNL1       -0.4640
     20 C         153.4922  144.3929  153.7166 C.3     1  UNL1        0.1676
     21 C         153.4269  145.0513  155.0628 C.3     1  UNL1        0.0437
     22 C         154.5880  145.9255  154.6917 C.3     1  UNL1        0.0074
     23 C         154.6533  145.2671  153.3455 C.3     1  UNL1        0.0437
     24 O         144.0720  144.6688  162.3553 O.2     1  UNL1       -0.2733
     25 C         142.7825  143.9099  162.4610 C.2     1  UNL1        0.2426
     26 N         142.3843  142.9532  161.3765 N.am    1  UNL1       -0.3018
     27 H         141.5379  142.4551  161.4459 H       1  UNL1        0.1495
     28 C         141.8912  144.1078  163.6510 C.3     1  UNL1        0.1759
     29 N         141.4320  142.9237  164.4493 N.am    1  UNL1       -0.2931
     30 C         139.9917  142.8024  164.8502 C.2     1  UNL1        0.2462
     31 O         139.0105  143.8651  164.4528 O.2     1  UNL1       -0.2701
     32 H         142.0759  142.2262  164.7101 H       1  UNL1        0.1502
     33 C         139.5324  141.6183  165.6484 C.ar    1  UNL1        0.0533
     34 C         138.5737  140.6342  165.0465 C.ar    1  UNL1        0.0045
     35 C         138.1146  139.4502  165.8448 C.ar    1  UNL1        0.0001
     36 C         138.6141  139.2503  167.2450 C.ar    1  UNL1        0.0039
     37 C         139.5729  140.2345  167.8469 C.ar    1  UNL1        0.0716
     38 C         140.0320  141.4184  167.0486 C.ar    1  UNL1        0.0084
     39 C         140.0724  140.0346  169.2470 C.3     1  UNL1        0.4186
     40 F         140.5720  139.8347  170.6472 F       1  UNL1       -0.1659
     41 F         138.7424  140.4733  169.7842 F       1  UNL1       -0.1659
     42 F         141.4025  139.5958  168.7099 F       1  UNL1       -0.1659
@<TRIPOS>BOND
     1    24    25    2
     2    25    28    1
     3    28    29    1
     4    29    30   am
     5    30    31    2
     6    30    33    1
     7    33    34   ar
     8    34    35   ar
     9    35    36   ar
    10    36    37   ar
    11    37    39    1
    12    39    40    1
    13    39    41    1
    14    39    42    1
    15    37    38   ar
    16    25    26   am
    17    26     1    1
    18     1     2    1
    19     2     3    1
    20     5     3    1
    21     5     6    1
    22     6     7    1
    23     7     8    1
    24     8     9    1
    25     8    13    1
    26    13    14   ar
    27    14    15   ar
    28    15    16   ar
    29    16    19    1
    30    19    20    1
    31    20    21    1
    32    21    22    1
    33    22    23    1
    34    16    17   ar
    35    17    18   ar
    36     8    10    1
    37    10    11    1
    38     3     4    1
    39    38    33   ar
    40     4     1    1
    41    11     5    1
    42    18    13   ar
    43    23    20    1
    44    29    32    1
    45    26    27    1
    46     9    12    1
@<TRIPOS>MOLECULE
*****
 42 46 0 0 0
SMALL
GASTEIGER

@<TRIPOS>ATOM
      1 C         142.9601  142.6561  159.9360 C.3     1  UNL1        0.1035
      2 C         143.1224  143.2823  158.5826 C.3     1  UNL1        0.0933
      3 N         144.3053  142.3993  158.3160 N.3     1  UNL1       -0.2711
      4 C         144.1431  141.7732  159.6693 C.3     1  UNL1        0.0933
      5 C         145.2565  142.2177  157.1705 C.3     1  UNL1        0.0578
      6 C         144.8250  141.4596  155.9502 C.3     1  UNL1        0.0187
      7 C         145.7762  141.2780  154.8046 C.3     1  UNL1        0.0326
      8 C         147.1590  141.8545  154.8794 C.3     1  UNL1        0.1085
      9 O         147.2143  141.2201  153.5213 O.3     1  UNL1       -0.3826
     10 C         147.5905  142.6126  156.0997 C.3     1  UNL1        0.0326
     11 C         146.6393  142.7942  157.2452 C.3     1  UNL1        0.0187
     12 H         146.3642  140.7947  153.3283 H       1  UNL1        0.2107
     13 C         148.5609  142.2107  154.4825 C.ar    1  UNL1        0.0211
     14 C         149.7236  141.5526  155.1645 C.ar    1  UNL1        0.0043
     15 C         151.1256  141.9088  154.7676 C.ar    1  UNL1        0.0575
     16 C         151.3649  142.9231  153.6887 C.ar    1  UNL1        0.2247
     17 N         150.2023  143.5812  153.0067 N.ar    1  UNL1       -0.2104
     18 C         148.8002  143.2250  153.4036 C.ar    1  UNL1        0.1000
     19 O         152.7669  143.2792  153.2919 O.3     1  UNL1       -0.4640
     20 C         153.6631  143.9909  154.2615 C.3     1  UNL1        0.1676
     21 C         155.1465  144.1588  154.4080 C.3     1  UNL1        0.0437
     22 C         154.9307  144.9975  155.6328 C.3     1  UNL1        0.0074
     23 C         153.4473  144.8296  155.4863 C.3     1  UNL1        0.0437
     24 O         141.5660  145.2838  160.3260 O.2     1  UNL1       -0.2733
     25 C         141.3119  144.1516  161.2765 C.2     1  UNL1        0.2426
     26 N         142.0089  142.8378  161.0815 N.am    1  UNL1       -0.3018
     27 H         141.8421  142.0947  161.7054 H       1  UNL1        0.1495
     28 C         140.3607  144.3332  162.4220 C.3     1  UNL1        0.1759
     29 N         140.4657  143.4516  163.6311 N.am    1  UNL1       -0.2931
     30 C         139.2792  142.6522  164.0818 C.2     1  UNL1        0.2462
     31 O         137.9877  142.7344  163.3235 O.2     1  UNL1       -0.2701
     32 H         141.3134  143.3977  164.1289 H       1  UNL1        0.1502
     33 C         139.3843  141.7707  165.2910 C.ar    1  UNL1        0.0533
     34 C         140.1789  142.2211  166.4808 C.ar    1  UNL1        0.0045
     35 C         140.2839  141.3396  167.6898 C.ar    1  UNL1        0.0001
     36 C         139.5943  140.0076  167.7090 C.ar    1  UNL1        0.0039
     37 C         138.7998  139.5572  166.5192 C.ar    1  UNL1        0.0716
     38 C         138.6947  140.4387  165.3102 C.ar    1  UNL1        0.0084
     39 C         138.1102  138.2252  166.5384 C.3     1  UNL1        0.4186
     40 F         137.4206  136.8932  166.5576 F       1  UNL1       -0.1659
     41 F         138.9031  137.7974  165.3391 F       1  UNL1       -0.1659
     42 F         137.3173  138.6530  167.7377 F       1  UNL1       -0.1659
@<TRIPOS>BOND
     1    24    25    2
     2    25    28    1
     3    28    29    1
     4    29    30   am
     5    30    31    2
     6    30    33    1
     7    33    34   ar
     8    34    35   ar
     9    35    36   ar
    10    36    37   ar
    11    37    39    1
    12    39    40    1
    13    39    41    1
    14    39    42    1
    15    37    38   ar
    16    25    26   am
    17    26     1    1
    18     1     2    1
    19     2     3    1
    20     5     3    1
    21     5     6    1
    22     6     7    1
    23     7     8    1
    24     8     9    1
    25     8    13    1
    26    13    14   ar
    27    14    15   ar
    28    15    16   ar
    29    16    19    1
    30    19    20    1
    31    20    21    1
    32    21    22    1
    33    22    23    1
    34    16    17   ar
    35    17    18   ar
    36     8    10    1
    37    10    11    1
    38     3     4    1
    39    38    33   ar
    40     4     1    1
    41    11     5    1
    42    18    13   ar
    43    23    20    1
    44    29    32    1
    45    26    27    1
    46     9    12    1
@<TRIPOS>MOLECULE
*****
 42 46 0 0 0
SMALL
GASTEIGER

@<TRIPOS>ATOM
      1 C         139.5485  138.9775  161.2682 C.3     1  UNL1        0.1035
      2 C         140.1986  138.3228  162.4509 C.3     1  UNL1        0.0933
      3 N         139.7255  139.4420  163.3304 N.3     1  UNL1       -0.2711
      4 C         139.0754  140.0966  162.1477 C.3     1  UNL1        0.0933
      5 C         139.8507  139.7704  164.7886 C.3     1  UNL1        0.0578
      6 C         138.9911  139.0622  165.7934 C.3     1  UNL1        0.0187
      7 C         139.1163  139.3907  167.2517 C.3     1  UNL1        0.0326
      8 C         140.1010  140.4274  167.7051 C.3     1  UNL1        0.1085
      9 O         139.5124  140.0314  169.0268 O.3     1  UNL1       -0.3826
     10 C         140.9605  141.1356  166.7003 C.3     1  UNL1        0.0326
     11 C         140.8354  140.8071  165.2421 C.3     1  UNL1        0.0187
     12 H         138.8392  139.3468  168.8888 H       1  UNL1        0.2107
     13 C         140.8813  141.3266  168.6176 C.ar    1  UNL1        0.0211
     14 C         140.4001  142.7215  168.8873 C.ar    1  UNL1        0.0043
     15 C         141.1805  143.6207  169.7997 C.ar    1  UNL1        0.0575
     16 C         142.4419  143.1249  170.4425 C.ar    1  UNL1        0.2247
     17 N         142.9230  141.7301  170.1728 N.ar    1  UNL1       -0.2104
     18 C         142.1427  140.8308  169.2603 C.ar    1  UNL1        0.1000
     19 O         143.2222  144.0242  171.3549 O.3     1  UNL1       -0.4640
     20 C         144.6875  144.2422  171.1201 C.3     1  UNL1        0.1676
     21 C         145.6744  145.3082  171.4935 C.3     1  UNL1        0.0437
     22 C         146.7599  144.5506  170.7880 C.3     1  UNL1        0.0074
     23 C         145.7730  143.4845  170.4146 C.3     1  UNL1        0.0437
     24 O         141.9509  139.1516  159.4798 O.2     1  UNL1       -0.2733
     25 C         140.6246  138.7360  158.9157 C.2     1  UNL1        0.2426
     26 N         139.4234  138.6490  159.8099 N.am    1  UNL1       -0.3018
     27 H         138.5529  138.3762  159.4397 H       1  UNL1        0.1495
     28 C         140.4994  138.4075  157.4575 C.3     1  UNL1        0.1759
     29 N         140.7415  137.0060  156.9810 N.am    1  UNL1       -0.2931
     30 C         142.1431  136.5232  156.7522 C.2     1  UNL1        0.2462
     31 O         143.3027  137.4419  156.9999 O.2     1  UNL1       -0.2701
     32 H         139.9805  136.4030  156.8184 H       1  UNL1        0.1502
     33 C         142.3852  135.1216  156.2756 C.ar    1  UNL1        0.0533
     34 C         141.8142  134.6657  154.9657 C.ar    1  UNL1        0.0045
     35 C         142.0563  133.2641  154.4892 C.ar    1  UNL1        0.0001
     36 C         142.8694  132.3185  155.3227 C.ar    1  UNL1        0.0039
     37 C         143.4404  132.7745  156.6326 C.ar    1  UNL1        0.0716
     38 C         143.1983  134.1760  157.1091 C.ar    1  UNL1        0.0084
     39 C         144.2536  131.8288  157.4661 C.3     1  UNL1        0.4186
     40 F         145.0667  130.8832  158.2995 F       1  UNL1       -0.1659
     41 F         143.2701  130.7325  157.1817 F       1  UNL1       -0.1659
     42 F         145.2370  132.9252  157.7504 F       1  UNL1       -0.1659
@<TRIPOS>BOND
     1    24    25    2
     2    25    28    1
     3    28    29    1
     4    29    30   am
     5    30    31    2
     6    30    33    1
     7    33    34   ar
     8    34    35   ar
     9    35    36   ar
    10    36    37   ar
    11    37    39    1
    12    39    40    1
    13    39    41    1
    14    39    42    1
    15    37    38   ar
    16    25    26   am
    17    26     1    1
    18     1     2    1
    19     2     3    1
    20     5     3    1
    21     5     6    1
    22     6     7    1
    23     7     8    1
    24     8     9    1
    25     8    13    1
    26    13    14   ar
    27    14    15   ar
    28    15    16   ar
    29    16    19    1
    30    19    20    1
    31    20    21    1
    32    21    22    1
    33    22    23    1
    34    16    17   ar
    35    17    18   ar
    36     8    10    1
    37    10    11    1
    38     3     4    1
    39    38    33   ar
    40     4     1    1
    41    11     5    1
    42    18    13   ar
    43    23    20    1
    44    29    32    1
    45    26    27    1
    46     9    12    1
@<TRIPOS>MOLECULE
*****
 42 46 0 0 0
SMALL
GASTEIGER

@<TRIPOS>ATOM
      1 C         142.7806  140.8976  160.9000 C.3     1  UNL1        0.1035
      2 C         141.7954  140.4258  159.8720 C.3     1  UNL1        0.0933
      3 N         142.8941  139.7026  159.1509 N.3     1  UNL1       -0.2711
      4 C         143.8793  140.1744  160.1789 C.3     1  UNL1        0.0933
      5 C         142.9743  138.8577  157.9142 C.3     1  UNL1        0.0578
      6 C         143.2838  139.4925  156.5909 C.3     1  UNL1        0.0187
      7 C         143.3640  138.6475  155.3541 C.3     1  UNL1        0.0326
      8 C         143.1347  137.1677  155.4407 C.3     1  UNL1        0.1085
      9 O         143.3961  137.3052  153.9701 O.3     1  UNL1       -0.3826
     10 C         142.8252  136.5328  156.7640 C.3     1  UNL1        0.0326
     11 C         142.7450  137.3778  158.0007 C.3     1  UNL1        0.0187
     12 H         143.5663  138.2362  153.7576 H       1  UNL1        0.2107
     13 C         142.9962  135.7356  155.0165 C.ar    1  UNL1        0.0211
     14 C         143.6536  134.6497  155.8157 C.ar    1  UNL1        0.0043
     15 C         143.5151  133.2176  155.3916 C.ar    1  UNL1        0.0575
     16 C         142.7191  132.8714  154.1682 C.ar    1  UNL1        0.2247
     17 N         142.0617  133.9572  153.3690 N.ar    1  UNL1       -0.2104
     18 C         142.2002  135.3894  153.7931 C.ar    1  UNL1        0.1000
     19 O         142.5806  131.4393  153.7441 O.3     1  UNL1       -0.4640
     20 C         141.4488  130.6074  154.2701 C.3     1  UNL1        0.1676
     21 C         141.3308  129.2442  154.8848 C.3     1  UNL1        0.0437
     22 C         139.8480  129.4307  155.0140 C.3     1  UNL1        0.0074
     23 C         139.9660  130.7938  154.3993 C.3     1  UNL1        0.0437
     24 O         142.8943  143.8876  160.6838 O.2     1  UNL1       -0.2733
     25 C         142.7572  143.2376  162.0287 C.2     1  UNL1        0.2426
     26 N         142.7004  141.7426  162.1368 N.am    1  UNL1       -0.3018
     27 H         142.6104  141.3159  163.0195 H       1  UNL1        0.1495
     28 C         142.6769  144.0825  163.2655 C.3     1  UNL1        0.1759
     29 N         142.7742  143.4425  164.6186 N.am    1  UNL1       -0.2931
     30 C         141.5318  142.9808  165.3209 C.2     1  UNL1        0.2462
     31 O         140.1921  143.1591  164.6701 O.2     1  UNL1       -0.2701
     32 H         143.6534  143.3255  165.0458 H       1  UNL1        0.1502
     33 C         141.6290  142.3408  166.6741 C.ar    1  UNL1        0.0533
     34 C         142.9561  142.2502  167.3673 C.ar    1  UNL1        0.0045
     35 C         143.0532  141.6102  168.7204 C.ar    1  UNL1        0.0001
     36 C         141.8233  141.0609  169.3804 C.ar    1  UNL1        0.0039
     37 C         140.4962  141.1515  168.6872 C.ar    1  UNL1        0.0716
     38 C         140.3990  141.7915  167.3340 C.ar    1  UNL1        0.0084
     39 C         139.2663  140.6022  169.3471 C.3     1  UNL1        0.4186
     40 F         138.0363  140.0529  170.0070 F       1  UNL1       -0.1659
     41 F         139.2029  139.5106  168.3203 F       1  UNL1       -0.1659
     42 F         139.3296  141.6939  170.3739 F       1  UNL1       -0.1659
@<TRIPOS>BOND
     1    24    25    2
     2    25    28    1
     3    28    29    1
     4    29    30   am
     5    30    31    2
     6    30    33    1
     7    33    34   ar
     8    34    35   ar
     9    35    36   ar
    10    36    37   ar
    11    37    39    1
    12    39    40    1
    13    39    41    1
    14    39    42    1
    15    37    38   ar
    16    25    26   am
    17    26     1    1
    18     1     2    1
    19     2     3    1
    20     5     3    1
    21     5     6    1
    22     6     7    1
    23     7     8    1
    24     8     9    1
    25     8    13    1
    26    13    14   ar
    27    14    15   ar
    28    15    16   ar
    29    16    19    1
    30    19    20    1
    31    20    21    1
    32    21    22    1
    33    22    23    1
    34    16    17   ar
    35    17    18   ar
    36     8    10    1
    37    10    11    1
    38     3     4    1
    39    38    33   ar
    40     4     1    1
    41    11     5    1
    42    18    13   ar
    43    23    20    1
    44    29    32    1
    45    26    27    1
    46     9    12    1
@<TRIPOS>MOLECULE
*****
 42 46 0 0 0
SMALL
GASTEIGER

@<TRIPOS>ATOM
      1 C         139.0223  142.7294  157.1998 C.3     1  UNL1        0.1035
      2 C         139.5616  143.7718  158.1339 C.3     1  UNL1        0.0933
      3 N         140.4446  142.7416  158.7737 N.3     1  UNL1       -0.2711
      4 C         139.9052  141.6993  157.8395 C.3     1  UNL1        0.0933
      5 C         141.4502  142.7503  159.8865 C.3     1  UNL1        0.0578
      6 C         142.9139  142.8506  159.5740 C.3     1  UNL1        0.0187
      7 C         143.9195  142.8592  160.6870 C.3     1  UNL1        0.0326
      8 C         143.4615  142.7675  162.1124 C.3     1  UNL1        0.1085
      9 O         144.9450  142.8454  162.3199 O.3     1  UNL1       -0.3826
     10 C         141.9979  142.6671  162.4249 C.3     1  UNL1        0.0326
     11 C         140.9922  142.6585  161.3120 C.3     1  UNL1        0.0187
     12 H         145.3888  142.9106  161.4599 H       1  UNL1        0.2107
     13 C         143.5188  142.7028  163.6099 C.ar    1  UNL1        0.0211
     14 C         144.2687  143.7507  164.3777 C.ar    1  UNL1        0.0043
     15 C         144.3259  143.6861  165.8752 C.ar    1  UNL1        0.0575
     16 C         143.6332  142.5734  166.6049 C.ar    1  UNL1        0.2247
     17 N         142.8833  141.5256  165.8371 N.ar    1  UNL1       -0.2104
     18 C         142.8261  141.5902  164.3395 C.ar    1  UNL1        0.1000
     19 O         143.6904  142.5088  168.1024 O.3     1  UNL1       -0.4640
     20 C         142.4456  142.7256  168.9107 C.3     1  UNL1        0.1676
     21 C         142.1571  143.0933  170.3360 C.3     1  UNL1        0.0437
     22 C         140.6852  143.0323  170.0539 C.3     1  UNL1        0.0074
     23 C         140.9736  142.6647  168.6286 C.3     1  UNL1        0.0437
     24 O         136.7254  140.8008  157.2684 O.2     1  UNL1       -0.2733
     25 C         136.8682  141.7566  156.1212 C.2     1  UNL1        0.2426
     26 N         138.0166  142.7209  156.0869 N.am    1  UNL1       -0.3018
     27 H         138.1103  143.3482  155.3339 H       1  UNL1        0.1495
     28 C         135.8626  141.7480  155.0083 C.3     1  UNL1        0.1759
     29 N         134.3959  141.7331  155.3228 N.am    1  UNL1       -0.2931
     30 C         133.7213  140.4456  155.6928 C.2     1  UNL1        0.2462
     31 O         134.5132  139.1728  155.7483 O.2     1  UNL1       -0.2701
     32 H         133.8762  142.5684  155.2864 H       1  UNL1        0.1502
     33 C         132.2546  140.4307  156.0073 C.ar    1  UNL1        0.0533
     34 C         131.3371  141.4204  155.3527 C.ar    1  UNL1        0.0045
     35 C         129.8706  141.4054  155.6672 C.ar    1  UNL1        0.0001
     36 C         129.3215  140.4008  156.6363 C.ar    1  UNL1        0.0039
     37 C         130.2390  139.4111  157.2909 C.ar    1  UNL1        0.0716
     38 C         131.7056  139.4260  156.9764 C.ar    1  UNL1        0.0084
     39 C         129.6900  138.4064  158.2601 C.3     1  UNL1        0.4186
     40 F         129.1410  137.4017  159.2292 F       1  UNL1       -0.1659
     41 F         131.0799  138.1092  158.7394 F       1  UNL1       -0.1659
     42 F         128.3001  138.7037  157.7808 F       1  UNL1       -0.1659
@<TRIPOS>BOND
     1    24    25    2
     2    25    28    1
     3    28    29    1
     4    29    30   am
     5    30    31    2
     6    30    33    1
     7    33    34   ar
     8    34    35   ar
     9    35    36   ar
    10    36    37   ar
    11    37    39    1
    12    39    40    1
    13    39    41    1
    14    39    42    1
    15    37    38   ar
    16    25    26   am
    17    26     1    1
    18     1     2    1
    19     2     3    1
    20     5     3    1
    21     5     6    1
    22     6     7    1
    23     7     8    1
    24     8     9    1
    25     8    13    1
    26    13    14   ar
    27    14    15   ar
    28    15    16   ar
    29    16    19    1
    30    19    20    1
    31    20    21    1
    32    21    22    1
    33    22    23    1
    34    16    17   ar
    35    17    18   ar
    36     8    10    1
    37    10    11    1
    38     3     4    1
    39    38    33   ar
    40     4     1    1
    41    11     5    1
    42    18    13   ar
    43    23    20    1
    44    29    32    1
    45    26    27    1
    46     9    12    1
@<TRIPOS>MOLECULE
*****
 42 46 0 0 0
SMALL
GASTEIGER

@<TRIPOS>ATOM
      1 C         142.2972  140.2528  157.4526 C.3     1  UNL1        0.1035
      2 C         143.4029  139.4009  156.9034 C.3     1  UNL1        0.0933
      3 N         142.4230  138.2947  156.6463 N.3     1  UNL1       -0.2711
      4 C         141.3173  139.1465  157.1955 C.3     1  UNL1        0.0933
      5 C         142.5120  136.9101  156.0762 C.3     1  UNL1        0.0578
      6 C         142.3579  136.6957  154.5996 C.3     1  UNL1        0.0187
      7 C         142.4469  135.3110  154.0295 C.3     1  UNL1        0.0326
      8 C         142.6900  134.1409  154.9360 C.3     1  UNL1        0.1085
      9 O         142.6107  133.4350  153.6149 O.3     1  UNL1       -0.3826
     10 C         142.8441  134.3554  156.4126 C.3     1  UNL1        0.0326
     11 C         142.7551  135.7399  156.9827 C.3     1  UNL1        0.0187
     12 H         142.4516  134.0831  152.9110 H       1  UNL1        0.2107
     13 C         142.9055  132.7256  155.3837 C.ar    1  UNL1        0.0211
     14 C         141.8113  131.7126  155.2208 C.ar    1  UNL1        0.0043
     15 C         142.0269  130.2973  155.6684 C.ar    1  UNL1        0.0575
     16 C         143.3367  129.8950  156.2790 C.ar    1  UNL1        0.2247
     17 N         144.4308  130.9080  156.4419 N.ar    1  UNL1       -0.2104
     18 C         144.2153  132.3234  155.9942 C.ar    1  UNL1        0.1000
     19 O         143.5522  128.4797  156.7267 O.3     1  UNL1       -0.4640
     20 C         143.0247  128.0246  158.0550 C.3     1  UNL1        0.1676
     21 C         141.9525  127.0754  158.5016 C.3     1  UNL1        0.0437
     22 C         142.2785  127.3808  159.9336 C.3     1  UNL1        0.0074
     23 C         143.3508  128.3299  159.4869 C.3     1  UNL1        0.0437
     24 O         142.2148  142.6270  155.6205 O.2     1  UNL1       -0.2733
     25 C         142.1670  142.8244  157.1067 C.2     1  UNL1        0.2426
     26 N         142.2082  141.6374  158.0227 N.am    1  UNL1       -0.3018
     27 H         142.1769  141.7670  158.9982 H       1  UNL1        0.1495
     28 C         142.0781  144.2090  157.6769 C.3     1  UNL1        0.1759
     29 N         142.0856  144.4099  159.1634 N.am    1  UNL1       -0.2931
     30 C         140.8066  144.3082  159.9404 C.2     1  UNL1        0.2462
     31 O         139.5200  144.0055  159.2309 O.2     1  UNL1       -0.2701
     32 H         142.9299  144.6085  159.6290 H       1  UNL1        0.1502
     33 C         140.8140  144.5091  161.4269 C.ar    1  UNL1        0.0533
     34 C         142.1035  144.7922  162.1390 C.ar    1  UNL1        0.0045
     35 C         142.1109  144.9931  163.6254 C.ar    1  UNL1        0.0001
     36 C         140.8289  144.9108  164.3998 C.ar    1  UNL1        0.0039
     37 C         139.5394  144.6277  163.6877 C.ar    1  UNL1        0.0716
     38 C         139.5320  144.4268  162.2013 C.ar    1  UNL1        0.0084
     39 C         138.2574  144.5454  164.4620 C.3     1  UNL1        0.4186
     40 F         136.9754  144.4632  165.2364 F       1  UNL1       -0.1659
     41 F         138.9271  145.1902  165.6392 F       1  UNL1       -0.1659
     42 F         137.5877  143.9006  163.2849 F       1  UNL1       -0.1659
@<TRIPOS>BOND
     1    24    25    2
     2    25    28    1
     3    28    29    1
     4    29    30   am
     5    30    31    2
     6    30    33    1
     7    33    34   ar
     8    34    35   ar
     9    35    36   ar
    10    36    37   ar
    11    37    39    1
    12    39    40    1
    13    39    41    1
    14    39    42    1
    15    37    38   ar
    16    25    26   am
    17    26     1    1
    18     1     2    1
    19     2     3    1
    20     5     3    1
    21     5     6    1
    22     6     7    1
    23     7     8    1
    24     8     9    1
    25     8    13    1
    26    13    14   ar
    27    14    15   ar
    28    15    16   ar
    29    16    19    1
    30    19    20    1
    31    20    21    1
    32    21    22    1
    33    22    23    1
    34    16    17   ar
    35    17    18   ar
    36     8    10    1
    37    10    11    1
    38     3     4    1
    39    38    33   ar
    40     4     1    1
    41    11     5    1
    42    18    13   ar
    43    23    20    1
    44    29    32    1
    45    26    27    1
    46     9    12    1
@<TRIPOS>MOLECULE
*****
 42 46 0 0 0
SMALL
GASTEIGER

@<TRIPOS>ATOM
      1 C         139.4114  138.4256  161.0130 C.3     1  UNL1        0.1035
      2 C         140.2373  138.0079  162.1935 C.3     1  UNL1        0.0933
      3 N         139.4462  138.9300  163.0733 N.3     1  UNL1       -0.2711
      4 C         138.6204  139.3477  161.8928 C.3     1  UNL1        0.0933
      5 C         139.4708  139.2866  164.5300 C.3     1  UNL1        0.0578
      6 C         138.4632  138.6875  165.4659 C.3     1  UNL1        0.0187
      7 C         138.4879  139.0442  166.9228 C.3     1  UNL1        0.0326
      8 C         139.5199  139.9999  167.4436 C.3     1  UNL1        0.1085
      9 O         138.7819  139.6961  168.7135 O.3     1  UNL1       -0.3826
     10 C         140.5275  140.5990  166.5076 C.3     1  UNL1        0.0326
     11 C         140.5029  140.2424  165.0509 C.3     1  UNL1        0.0187
     12 H         138.0631  139.0716  168.5283 H       1  UNL1        0.2107
     13 C         140.2957  140.8501  168.4055 C.ar    1  UNL1        0.0211
     14 C         140.2386  142.3453  168.2995 C.ar    1  UNL1        0.0043
     15 C         141.0143  143.1956  169.2614 C.ar    1  UNL1        0.0575
     16 C         141.8473  142.5506  170.3292 C.ar    1  UNL1        0.2247
     17 N         141.9045  141.0556  170.4352 N.ar    1  UNL1       -0.2104
     18 C         141.1287  140.2052  169.4733 C.ar    1  UNL1        0.1000
     19 O         142.6230  143.4009  171.2911 O.3     1  UNL1       -0.4640
     20 C         144.0669  143.7079  171.0250 C.3     1  UNL1        0.1676
     21 C         145.0228  144.7767  171.4654 C.3     1  UNL1        0.0437
     22 C         146.1091  144.1420  170.6487 C.3     1  UNL1        0.0074
     23 C         145.1533  143.0732  170.2082 C.3     1  UNL1        0.0437
     24 O         141.5359  139.4784  159.1749 O.2     1  UNL1       -0.2733
     25 C         140.4491  138.5953  158.6372 C.2     1  UNL1        0.2426
     26 N         139.3869  138.0690  159.5562 N.am    1  UNL1       -0.3018
     27 H         138.6736  137.4894  159.2033 H       1  UNL1        0.1495
     28 C         140.4245  138.2386  157.1805 C.3     1  UNL1        0.1759
     29 N         140.7514  136.8409  156.7449 N.am    1  UNL1       -0.2931
     30 C         142.1816  136.3972  156.6591 C.2     1  UNL1        0.2462
     31 O         143.2851  137.3511  157.0089 O.2     1  UNL1       -0.2701
     32 H         140.0271  136.2148  156.5153 H       1  UNL1        0.1502
     33 C         142.5084  134.9995  156.2235 C.ar    1  UNL1        0.0533
     34 C         143.8166  134.3785  156.6148 C.ar    1  UNL1        0.0045
     35 C         144.1433  132.9809  156.1792 C.ar    1  UNL1        0.0001
     36 C         143.1619  132.2042  155.3524 C.ar    1  UNL1        0.0039
     37 C         141.8538  132.8251  154.9612 C.ar    1  UNL1        0.0716
     38 C         141.5270  134.2228  155.3967 C.ar    1  UNL1        0.0084
     39 C         140.8724  132.0484  154.1343 C.3     1  UNL1        0.4186
     40 F         139.8910  131.2717  153.3075 F       1  UNL1       -0.1659
     41 F         140.8578  133.1503  153.1166 F       1  UNL1       -0.1659
     42 F         140.8870  130.9466  155.1520 F       1  UNL1       -0.1659
@<TRIPOS>BOND
     1    24    25    2
     2    25    28    1
     3    28    29    1
     4    29    30   am
     5    30    31    2
     6    30    33    1
     7    33    34   ar
     8    34    35   ar
     9    35    36   ar
    10    36    37   ar
    11    37    39    1
    12    39    40    1
    13    39    41    1
    14    39    42    1
    15    37    38   ar
    16    25    26   am
    17    26     1    1
    18     1     2    1
    19     2     3    1
    20     5     3    1
    21     5     6    1
    22     6     7    1
    23     7     8    1
    24     8     9    1
    25     8    13    1
    26    13    14   ar
    27    14    15   ar
    28    15    16   ar
    29    16    19    1
    30    19    20    1
    31    20    21    1
    32    21    22    1
    33    22    23    1
    34    16    17   ar
    35    17    18   ar
    36     8    10    1
    37    10    11    1
    38     3     4    1
    39    38    33   ar
    40     4     1    1
    41    11     5    1
    42    18    13   ar
    43    23    20    1
    44    29    32    1
    45    26    27    1
    46     9    12    1
