@<TRIPOS>MOLECULE
*****
 30 33 0 0 0
SMALL
GASTEIGER

@<TRIPOS>ATOM
      1 C         140.0095  139.6059  160.0698 C.ar    1  UNL1        0.2553
      2 N         141.4910  139.7245  159.8673 N.ar    1  UNL1       -0.1957
      3 C         142.1456  139.0440  158.7018 C.ar    1  UNL1        0.1276
      4 N         143.6271  139.1628  158.4993 N.pl3   1  UNL1       -0.3427
      5 C         141.3187  138.2448  157.7387 C.ar    1  UNL1        0.0484
      6 C         139.8372  138.1261  157.9412 C.ar    1  UNL1        0.1363
      7 N         139.1826  138.8066  159.1067 N.ar    1  UNL1       -0.1951
      8 N         139.2847  137.2770  156.8350 N.am    1  UNL1       -0.2692
      9 C         140.4248  136.8708  155.9489 C.2     1  UNL1        0.2302
     10 O         140.3253  136.0166  154.7200 O.2     1  UNL1       -0.2744
     11 C         141.6818  137.4690  156.5074 C.3     1  UNL1        0.0932
     12 C         142.3365  136.7885  155.3419 C.3     1  UNL1        0.0137
     13 C         143.0757  137.9249  156.8223 C.3     1  UNL1        0.0137
     14 H         144.1698  139.6873  159.1314 H       1  UNL1        0.1437
     15 H         144.0567  138.7161  157.7344 H       1  UNL1        0.1437
     16 H         138.3398  137.0296  156.7121 H       1  UNL1        0.1563
     17 C         138.2679  141.9571  162.6200 C.ar    1  UNL1        0.0805
     18 N         138.8411  141.6954  161.2588 N.ar    1  UNL1       -0.1670
     19 N         139.3549  140.2864  161.2353 N.ar    1  UNL1       -0.1967
     20 C         139.0991  139.6772  162.5820 C.ar    1  UNL1        0.0871
     21 C         139.3912  138.3157  163.1396 C.ar    1  UNL1        0.0202
     22 C         139.0114  137.9868  164.5529 C.ar    1  UNL1        0.0129
     23 C         138.3396  139.0194  165.4087 C.ar    1  UNL1        0.0578
     24 CL        137.9598  138.6904  166.8221 Cl      1  UNL1       -0.0822
     25 C         138.0475  140.3809  164.8511 C.ar    1  UNL1        0.0141
     26 C         138.4273  140.7098  163.4378 C.ar    1  UNL1        0.0339
     27 C         137.6445  143.2408  163.0822 C.3     1  UNL1        0.0476
     28 C         138.5102  144.3510  163.6004 C.3     1  UNL1        0.0064
     29 C         139.7542  143.5997  165.7539 C.3     1  UNL1        0.0000
     30 C         138.7535  144.4867  165.0743 C.3     1  UNL1        0.0004
@<TRIPOS>BOND
     1    29    30    1
     2    30    28    1
     3    28    27    1
     4    27    17    1
     5    17    18   ar
     6    18    19   ar
     7    19     1    1
     8     1     2   ar
     9     2     3   ar
    10     3     4    1
    11     3     5   ar
    12     5     6   ar
    13     6     7   ar
    14     6     8    1
    15     8     9   am
    16     9    10    2
    17     9    11    1
    18    11    12    1
    19    11    13    1
    20    19    20   ar
    21    20    21   ar
    22    21    22   ar
    23    22    23   ar
    24    23    24    1
    25    23    25   ar
    26    25    26   ar
    27    26    17   ar
    28     7     1   ar
    29    26    20   ar
    30    11     5    1
    31     4    14    1
    32     4    15    1
    33     8    16    1
@<TRIPOS>MOLECULE
*****
 30 33 0 0 0
SMALL
GASTEIGER

@<TRIPOS>ATOM
      1 C         139.7345  139.6054  159.6802 C.ar    1  UNL1        0.2553
      2 N         138.8854  139.4245  158.4571 N.ar    1  UNL1       -0.1957
      3 C         139.4389  138.7126  157.2584 C.ar    1  UNL1        0.1276
      4 N         138.5897  138.5316  156.0352 N.pl3   1  UNL1       -0.3427
      5 C         140.8416  138.1817  157.2828 C.ar    1  UNL1        0.0484
      6 C         141.6908  138.3627  158.5060 C.ar    1  UNL1        0.1363
      7 N         141.1373  139.0745  159.7047 N.ar    1  UNL1       -0.1951
      8 N         143.0273  137.7362  158.2392 N.am    1  UNL1       -0.2692
      9 C         143.0042  137.1681  156.8511 C.2     1  UNL1        0.2302
     10 O         144.1336  136.4506  156.1733 O.2     1  UNL1       -0.2744
     11 C         141.6533  137.4434  156.2601 C.3     1  UNL1        0.0932
     12 C         142.2068  136.7316  155.0614 C.3     1  UNL1        0.0137
     13 C         140.4182  137.5699  155.4185 C.3     1  UNL1        0.0137
     14 H         137.6691  138.8801  156.0192 H       1  UNL1        0.1437
     15 H         138.9530  138.0644  155.2485 H       1  UNL1        0.1437
     16 H         143.7865  137.7037  158.8652 H       1  UNL1        0.1563
     17 C         138.2470  142.0363  162.3152 C.ar    1  UNL1        0.0805
     18 N         138.7225  141.7448  160.9228 N.ar    1  UNL1       -0.1670
     19 N         139.1810  140.3173  160.8790 N.ar    1  UNL1       -0.1967
     20 C         138.9889  139.7266  162.2443 C.ar    1  UNL1        0.0871
     21 C         139.2650  138.3585  162.7939 C.ar    1  UNL1        0.0202
     22 C         138.9639  138.0529  164.2312 C.ar    1  UNL1        0.0129
     23 C         138.3866  139.1153  165.1189 C.ar    1  UNL1        0.0578
     24 CL        138.0854  138.8096  166.5562 Cl      1  UNL1       -0.0822
     25 C         138.1105  140.4834  164.5693 C.ar    1  UNL1        0.0141
     26 C         138.4116  140.7890  163.1320 C.ar    1  UNL1        0.0339
     27 C         137.7024  143.3454  162.8050 C.3     1  UNL1        0.0476
     28 C         138.6036  144.5399  162.9114 C.3     1  UNL1        0.0064
     29 C         138.5438  144.8397  165.4914 C.3     1  UNL1        0.0000
     30 C         139.3097  144.8340  164.2017 C.3     1  UNL1        0.0004
@<TRIPOS>BOND
     1    29    30    1
     2    30    28    1
     3    28    27    1
     4    27    17    1
     5    17    18   ar
     6    18    19   ar
     7    19     1    1
     8     1     2   ar
     9     2     3   ar
    10     3     4    1
    11     3     5   ar
    12     5     6   ar
    13     6     7   ar
    14     6     8    1
    15     8     9   am
    16     9    10    2
    17     9    11    1
    18    11    12    1
    19    11    13    1
    20    19    20   ar
    21    20    21   ar
    22    21    22   ar
    23    22    23   ar
    24    23    24    1
    25    23    25   ar
    26    25    26   ar
    27    26    17   ar
    28     7     1   ar
    29    26    20   ar
    30    11     5    1
    31     4    14    1
    32     4    15    1
    33     8    16    1
@<TRIPOS>MOLECULE
*****
 30 33 0 0 0
SMALL
GASTEIGER

@<TRIPOS>ATOM
      1 C         141.1880  142.9302  163.3250 C.ar    1  UNL1        0.2553
      2 N         140.2882  144.1062  163.0862 N.ar    1  UNL1       -0.1957
      3 C         140.2945  144.7974  161.7550 C.ar    1  UNL1        0.1276
      4 N         139.3946  145.9735  161.5163 N.pl3   1  UNL1       -0.3427
      5 C         141.2007  144.3125  160.6624 C.ar    1  UNL1        0.0484
      6 C         142.1006  143.1365  160.9011 C.ar    1  UNL1        0.1363
      7 N         142.0943  142.4453  162.2324 N.ar    1  UNL1       -0.1951
      8 N         142.8797  142.8863  159.6440 N.am    1  UNL1       -0.2692
      9 C         142.4613  143.9078  158.6283 C.2     1  UNL1        0.2302
     10 O         142.9882  144.0268  157.2290 O.2     1  UNL1       -0.2744
     11 C         141.4237  144.7892  159.2578 C.3     1  UNL1        0.0932
     12 C         141.4300  145.4804  157.9265 C.3     1  UNL1        0.0137
     13 C         140.3873  145.8152  159.6089 C.3     1  UNL1        0.0137
     14 H         138.7998  146.2918  162.2333 H       1  UNL1        0.1437
     15 H         139.3987  146.4272  160.6425 H       1  UNL1        0.1437
     16 H         143.5483  142.1763  159.5092 H       1  UNL1        0.1563
     17 C         141.8152  141.5164  166.8849 C.ar    1  UNL1        0.0805
     18 N         142.2188  142.3845  165.7301 N.ar    1  UNL1       -0.1670
     19 N         141.1817  142.2390  164.6562 N.ar    1  UNL1       -0.1967
     20 C         140.1372  141.2809  165.1472 C.ar    1  UNL1        0.0871
     21 C         138.8802  140.7575  164.5181 C.ar    1  UNL1        0.0202
     22 C         138.0147  139.7874  165.2663 C.ar    1  UNL1        0.0129
     23 C         138.4062  139.3408  166.6437 C.ar    1  UNL1        0.0578
     24 CL        137.5407  138.3707  167.3920 Cl      1  UNL1       -0.0822
     25 C         139.6632  139.8643  167.2729 C.ar    1  UNL1        0.0141
     26 C         140.5287  140.8343  166.5246 C.ar    1  UNL1        0.0339
     27 C         142.5662  141.3581  168.1736 C.3     1  UNL1        0.0476
     28 C         142.7966  142.5473  169.0584 C.3     1  UNL1        0.0064
     29 C         140.4833  143.6069  169.5835 C.3     1  UNL1        0.0000
     30 C         141.7506  142.9560  170.0528 C.3     1  UNL1        0.0004
@<TRIPOS>BOND
     1    29    30    1
     2    30    28    1
     3    28    27    1
     4    27    17    1
     5    17    18   ar
     6    18    19   ar
     7    19     1    1
     8     1     2   ar
     9     2     3   ar
    10     3     4    1
    11     3     5   ar
    12     5     6   ar
    13     6     7   ar
    14     6     8    1
    15     8     9   am
    16     9    10    2
    17     9    11    1
    18    11    12    1
    19    11    13    1
    20    19    20   ar
    21    20    21   ar
    22    21    22   ar
    23    22    23   ar
    24    23    24    1
    25    23    25   ar
    26    25    26   ar
    27    26    17   ar
    28     7     1   ar
    29    26    20   ar
    30    11     5    1
    31     4    14    1
    32     4    15    1
    33     8    16    1
@<TRIPOS>MOLECULE
*****
 30 33 0 0 0
SMALL
GASTEIGER

@<TRIPOS>ATOM
      1 C         141.5826  142.4470  163.2151 C.ar    1  UNL1        0.2553
      2 N         142.7307  142.0243  162.3473 N.ar    1  UNL1       -0.1957
      3 C         142.8785  142.5954  160.9682 C.ar    1  UNL1        0.1276
      4 N         144.0266  142.1726  160.1004 N.pl3   1  UNL1       -0.3427
      5 C         141.8781  143.5892  160.4568 C.ar    1  UNL1        0.0484
      6 C         140.7300  144.0120  161.3245 C.ar    1  UNL1        0.1363
      7 N         140.5822  143.4410  162.7037 N.ar    1  UNL1       -0.1951
      8 N         139.9070  145.0019  160.5546 N.am    1  UNL1       -0.2692
      9 C         140.5466  145.1910  159.2110 C.2     1  UNL1        0.2302
     10 O         140.0543  146.0945  158.1196 O.2     1  UNL1       -0.2744
     11 C         141.7648  144.3179  159.1506 C.3     1  UNL1        0.0932
     12 C         141.9126  144.8889  157.7714 C.3     1  UNL1        0.0137
     13 C         143.0138  143.5642  158.8018 C.3     1  UNL1        0.0137
     14 H         144.6832  141.5203  160.4361 H       1  UNL1        0.1437
     15 H         144.1236  142.5474  159.1952 H       1  UNL1        0.1437
     16 H         139.0905  145.4491  160.8749 H       1  UNL1        0.1563
     17 C         141.8456  141.3322  166.9236 C.ar    1  UNL1        0.0805
     18 N         142.3807  142.0823  165.7400 N.ar    1  UNL1       -0.1670
     19 N         141.4348  141.8760  164.5942 N.ar    1  UNL1       -0.1967
     20 C         140.3151  140.9984  165.0697 C.ar    1  UNL1        0.0871
     21 C         139.0972  140.4618  164.3778 C.ar    1  UNL1        0.0202
     22 C         138.1332  139.5892  165.1255 C.ar    1  UNL1        0.0129
     23 C         138.3871  139.2531  166.5652 C.ar    1  UNL1        0.0578
     24 CL        137.4230  138.3804  167.3129 Cl      1  UNL1       -0.0822
     25 C         139.6050  139.7896  167.2571 C.ar    1  UNL1        0.0141
     26 C         140.5690  140.6622  166.5094 C.ar    1  UNL1        0.0339
     27 C         142.4763  141.2639  168.2828 C.3     1  UNL1        0.0476
     28 C         142.8456  142.5271  169.0026 C.3     1  UNL1        0.0064
     29 C         140.5377  143.5706  169.5811 C.3     1  UNL1        0.0000
     30 C         141.9034  143.1204  170.0078 C.3     1  UNL1        0.0004
@<TRIPOS>BOND
     1    29    30    1
     2    30    28    1
     3    28    27    1
     4    27    17    1
     5    17    18   ar
     6    18    19   ar
     7    19     1    1
     8     1     2   ar
     9     2     3   ar
    10     3     4    1
    11     3     5   ar
    12     5     6   ar
    13     6     7   ar
    14     6     8    1
    15     8     9   am
    16     9    10    2
    17     9    11    1
    18    11    12    1
    19    11    13    1
    20    19    20   ar
    21    20    21   ar
    22    21    22   ar
    23    22    23   ar
    24    23    24    1
    25    23    25   ar
    26    25    26   ar
    27    26    17   ar
    28     7     1   ar
    29    26    20   ar
    30    11     5    1
    31     4    14    1
    32     4    15    1
    33     8    16    1
@<TRIPOS>MOLECULE
*****
 30 33 0 0 0
SMALL
GASTEIGER

@<TRIPOS>ATOM
      1 C         140.9581  145.0737  159.7832 C.ar    1  UNL1        0.2553
      2 N         142.0486  144.3542  159.0463 N.ar    1  UNL1       -0.1957
      3 C         142.2307  144.5745  157.5738 C.ar    1  UNL1        0.1276
      4 N         143.3212  143.8548  156.8370 N.pl3   1  UNL1       -0.3427
      5 C         141.3223  145.5144  156.8381 C.ar    1  UNL1        0.0484
      6 C         140.2317  146.2340  157.5749 C.ar    1  UNL1        0.1363
      7 N         140.0496  146.0137  159.0474 N.ar    1  UNL1       -0.1951
      8 N         139.4959  147.0934  156.5900 N.am    1  UNL1       -0.2692
      9 C         140.1317  146.9050  155.2446 C.2     1  UNL1        0.2302
     10 O         139.7123  147.5748  153.9697 O.2     1  UNL1       -0.2744
     11 C         141.2604  145.9291  155.3979 C.3     1  UNL1        0.0932
     12 C         141.4426  146.1494  153.9254 C.3     1  UNL1        0.0137
     13 C         142.4272  144.9992  155.2434 C.3     1  UNL1        0.0137
     14 H         143.9175  143.2379  157.3199 H       1  UNL1        0.1437
     15 H         143.4408  143.9994  155.8706 H       1  UNL1        0.1437
     16 H         138.7301  147.6785  156.7914 H       1  UNL1        0.1563
     17 C         139.7718  144.7005  163.4599 C.ar    1  UNL1        0.0805
     18 N         139.4976  145.0250  162.0214 N.ar    1  UNL1       -0.1670
     19 N         140.7760  144.8534  161.2557 N.ar    1  UNL1       -0.1967
     20 C         141.8403  144.4229  162.2210 C.ar    1  UNL1        0.0871
     21 C         143.2944  144.1048  162.0355 C.ar    1  UNL1        0.0202
     22 C         144.1278  143.6921  163.2124 C.ar    1  UNL1        0.0129
     23 C         143.5072  143.5976  164.5747 C.ar    1  UNL1        0.0578
     24 CL        144.3408  143.1849  165.7516 Cl      1  UNL1       -0.0822
     25 C         142.0532  143.9157  164.7602 C.ar    1  UNL1        0.0141
     26 C         141.2197  144.3284  163.5833 C.ar    1  UNL1        0.0339
     27 C         138.7735  144.7409  164.5787 C.3     1  UNL1        0.0476
     28 C         137.6392  143.7598  164.6076 C.3     1  UNL1        0.0064
     29 C         137.3518  141.6403  163.1328 C.3     1  UNL1        0.0000
     30 C         137.9008  142.3034  164.3611 C.3     1  UNL1        0.0004
@<TRIPOS>BOND
     1    29    30    1
     2    30    28    1
     3    28    27    1
     4    27    17    1
     5    17    18   ar
     6    18    19   ar
     7    19     1    1
     8     1     2   ar
     9     2     3   ar
    10     3     4    1
    11     3     5   ar
    12     5     6   ar
    13     6     7   ar
    14     6     8    1
    15     8     9   am
    16     9    10    2
    17     9    11    1
    18    11    12    1
    19    11    13    1
    20    19    20   ar
    21    20    21   ar
    22    21    22   ar
    23    22    23   ar
    24    23    24    1
    25    23    25   ar
    26    25    26   ar
    27    26    17   ar
    28     7     1   ar
    29    26    20   ar
    30    11     5    1
    31     4    14    1
    32     4    15    1
    33     8    16    1
@<TRIPOS>MOLECULE
*****
 30 33 0 0 0
SMALL
GASTEIGER

@<TRIPOS>ATOM
      1 C         140.6758  142.3548  163.1045 C.ar    1  UNL1        0.2553
      2 N         139.6296  141.7287  162.2310 N.ar    1  UNL1       -0.1957
      3 C         139.4128  142.2387  160.8371 C.ar    1  UNL1        0.1276
      4 N         138.3665  141.6125  159.9636 N.pl3   1  UNL1       -0.3427
      5 C         140.2424  143.3749  160.3167 C.ar    1  UNL1        0.0484
      6 C         141.2887  144.0011  161.1903 C.ar    1  UNL1        0.1363
      7 N         141.5055  143.4911  162.5841 N.ar    1  UNL1       -0.1951
      8 N         141.9485  145.0986  160.4091 N.am    1  UNL1       -0.2692
      9 C         141.3100  145.1506  159.0528 C.2     1  UNL1        0.2302
     10 O         141.6638  146.1011  157.9477 O.2     1  UNL1       -0.2744
     11 C         140.2556  144.0854  158.9958 C.3     1  UNL1        0.0932
     12 C         140.0388  144.5954  157.6019 C.3     1  UNL1        0.0137
     13 C         139.1558  143.1267  158.6473 C.3     1  UNL1        0.0137
     14 H         137.8220  140.8667  160.3051 H       1  UNL1        0.1437
     15 H         138.2242  141.9472  159.0487 H       1  UNL1        0.1437
     16 H         142.6734  145.6822  160.7302 H       1  UNL1        0.1563
     17 C         140.7412  141.5688  166.9049 C.ar    1  UNL1        0.0805
     18 N         140.2353  142.3683  165.7410 N.ar    1  UNL1       -0.1670
     19 N         140.8926  141.8448  164.4984 N.ar    1  UNL1       -0.1967
     20 C         141.8047  140.7218  164.8944 C.ar    1  UNL1        0.0871
     21 C         142.7083  139.8325  164.0928 C.ar    1  UNL1        0.0202
     22 C         143.5184  138.7726  164.7786 C.ar    1  UNL1        0.0129
     23 C         143.4249  138.6019  166.2659 C.ar    1  UNL1        0.0578
     24 CL        144.2350  137.5420  166.9517 Cl      1  UNL1       -0.0822
     25 C         142.5212  139.4912  167.0675 C.ar    1  UNL1        0.0141
     26 C         141.7112  140.5511  166.3817 C.ar    1  UNL1        0.0339
     27 C         140.3465  141.7542  168.3401 C.3     1  UNL1        0.0476
     28 C         140.6317  143.0529  169.0346 C.3     1  UNL1        0.0064
     29 C         143.0856  142.4376  169.6256 C.3     1  UNL1        0.0000
     30 C         141.8173  143.1716  169.9458 C.3     1  UNL1        0.0004
@<TRIPOS>BOND
     1    29    30    1
     2    30    28    1
     3    28    27    1
     4    27    17    1
     5    17    18   ar
     6    18    19   ar
     7    19     1    1
     8     1     2   ar
     9     2     3   ar
    10     3     4    1
    11     3     5   ar
    12     5     6   ar
    13     6     7   ar
    14     6     8    1
    15     8     9   am
    16     9    10    2
    17     9    11    1
    18    11    12    1
    19    11    13    1
    20    19    20   ar
    21    20    21   ar
    22    21    22   ar
    23    22    23   ar
    24    23    24    1
    25    23    25   ar
    26    25    26   ar
    27    26    17   ar
    28     7     1   ar
    29    26    20   ar
    30    11     5    1
    31     4    14    1
    32     4    15    1
    33     8    16    1
@<TRIPOS>MOLECULE
*****
 30 33 0 0 0
SMALL
GASTEIGER

@<TRIPOS>ATOM
      1 C         140.4783  139.9170  161.0910 C.ar    1  UNL1        0.2553
      2 N         139.4164  140.0089  160.0358 N.ar    1  UNL1       -0.1957
      3 C         139.6351  139.3744  158.6943 C.ar    1  UNL1        0.1276
      4 N         138.5730  139.4663  157.6390 N.pl3   1  UNL1       -0.3427
      5 C         140.9158  138.6479  158.4081 C.ar    1  UNL1        0.0484
      6 C         141.9778  138.5560  159.4633 C.ar    1  UNL1        0.1363
      7 N         141.7592  139.1905  160.8048 N.ar    1  UNL1       -0.1951
      8 N         143.1294  137.7803  158.8957 N.am    1  UNL1       -0.2692
      9 C         142.7790  137.3928  157.4896 C.2     1  UNL1        0.2302
     10 O         143.6447  136.6071  156.5499 O.2     1  UNL1       -0.2744
     11 C         141.4110  137.9290  157.1883 C.3     1  UNL1        0.0932
     12 C         141.6297  137.2945  155.8468 C.3     1  UNL1        0.0137
     13 C         140.0887  138.3326  156.6064 C.3     1  UNL1        0.0137
     14 H         137.7324  139.9431  157.8269 H       1  UNL1        0.1437
     15 H         138.7166  139.0499  156.7586 H       1  UNL1        0.1437
     16 H         143.9679  137.5635  159.3638 H       1  UNL1        0.1563
     17 C         140.2328  142.1634  164.2467 C.ar    1  UNL1        0.0805
     18 N         140.6323  141.9528  162.8163 N.ar    1  UNL1       -0.1670
     19 N         140.2596  140.5515  162.4325 N.ar    1  UNL1       -0.1967
     20 C         139.6299  139.8960  163.6257 C.ar    1  UNL1        0.0871
     21 C         139.0694  138.5206  163.8361 C.ar    1  UNL1        0.0202
     22 C         138.4923  138.1416  165.1677 C.ar    1  UNL1        0.0129
     23 C         138.4757  139.1378  166.2890 C.ar    1  UNL1        0.0578
     24 CL        137.8986  138.7587  167.6206 Cl      1  UNL1       -0.0822
     25 C         139.0362  140.5131  166.0786 C.ar    1  UNL1        0.0141
     26 C         139.6133  140.8922  164.7470 C.ar    1  UNL1        0.0339
     27 C         140.4200  143.4239  165.0380 C.3     1  UNL1        0.0476
     28 C         139.3055  144.4236  165.1310 C.3     1  UNL1        0.0064
     29 C         137.6649  144.2902  163.1209 C.3     1  UNL1        0.0000
     30 C         137.9509  144.0901  164.5797 C.3     1  UNL1        0.0004
@<TRIPOS>BOND
     1    29    30    1
     2    30    28    1
     3    28    27    1
     4    27    17    1
     5    17    18   ar
     6    18    19   ar
     7    19     1    1
     8     1     2   ar
     9     2     3   ar
    10     3     4    1
    11     3     5   ar
    12     5     6   ar
    13     6     7   ar
    14     6     8    1
    15     8     9   am
    16     9    10    2
    17     9    11    1
    18    11    12    1
    19    11    13    1
    20    19    20   ar
    21    20    21   ar
    22    21    22   ar
    23    22    23   ar
    24    23    24    1
    25    23    25   ar
    26    25    26   ar
    27    26    17   ar
    28     7     1   ar
    29    26    20   ar
    30    11     5    1
    31     4    14    1
    32     4    15    1
    33     8    16    1
@<TRIPOS>MOLECULE
*****
 30 33 0 0 0
SMALL
GASTEIGER

@<TRIPOS>ATOM
      1 C         141.7278  144.5243  159.7053 C.ar    1  UNL1        0.2553
      2 N         141.2390  145.1402  160.9827 N.ar    1  UNL1       -0.1957
      3 C         141.9144  144.8106  162.2808 C.ar    1  UNL1        0.1276
      4 N         141.4255  145.4265  163.5582 N.pl3   1  UNL1       -0.3427
      5 C         143.0788  143.8652  162.3016 C.ar    1  UNL1        0.0484
      6 C         143.5677  143.2493  161.0243 C.ar    1  UNL1        0.1363
      7 N         142.8922  143.5788  159.7261 N.ar    1  UNL1       -0.1951
      8 N         144.7289  142.3589  161.3538 N.am    1  UNL1       -0.2692
      9 C         144.9577  142.4245  162.8348 C.2     1  UNL1        0.2302
     10 O         146.0199  141.6883  163.5962 O.2     1  UNL1       -0.2744
     11 C         143.9379  143.3554  163.4205 C.3     1  UNL1        0.0932
     12 C         144.6133  143.0259  164.7187 C.3     1  UNL1        0.0137
     13 C         143.0592  144.2174  164.2777 C.3     1  UNL1        0.0137
     14 H         140.6613  146.0470  163.5445 H       1  UNL1        0.1437
     15 H         141.8688  145.2102  164.4102 H       1  UNL1        0.1437
     16 H         145.2495  141.8251  160.7109 H       1  UNL1        0.1563
     17 C         140.5079  145.9122  156.2920 C.ar    1  UNL1        0.0805
     18 N         141.4561  145.9395  157.4540 N.ar    1  UNL1       -0.1670
     19 N         141.0524  144.8539  158.4072 N.ar    1  UNL1       -0.1967
     20 C         139.8547  144.1557  157.8344 C.ar    1  UNL1        0.0871
     21 C         139.0272  143.0089  158.3342 C.ar    1  UNL1        0.0202
     22 C         137.8630  142.5162  157.5268 C.ar    1  UNL1        0.0129
     23 C         137.5265  143.1702  156.2196 C.ar    1  UNL1        0.0578
     24 CL        136.3622  142.6774  155.4122 Cl      1  UNL1       -0.0822
     25 C         138.3540  144.3170  155.7197 C.ar    1  UNL1        0.0141
     26 C         139.5182  144.8098  156.5271 C.ar    1  UNL1        0.0339
     27 C         140.5431  146.8267  155.1036 C.3     1  UNL1        0.0476
     28 C         139.3647  147.7025  154.7959 C.3     1  UNL1        0.0064
     29 C         138.5611  149.9670  155.7838 C.3     1  UNL1        0.0000
     30 C         138.6991  148.4775  155.8943 C.3     1  UNL1        0.0004
@<TRIPOS>BOND
     1    29    30    1
     2    30    28    1
     3    28    27    1
     4    27    17    1
     5    17    18   ar
     6    18    19   ar
     7    19     1    1
     8     1     2   ar
     9     2     3   ar
    10     3     4    1
    11     3     5   ar
    12     5     6   ar
    13     6     7   ar
    14     6     8    1
    15     8     9   am
    16     9    10    2
    17     9    11    1
    18    11    12    1
    19    11    13    1
    20    19    20   ar
    21    20    21   ar
    22    21    22   ar
    23    22    23   ar
    24    23    24    1
    25    23    25   ar
    26    25    26   ar
    27    26    17   ar
    28     7     1   ar
    29    26    20   ar
    30    11     5    1
    31     4    14    1
    32     4    15    1
    33     8    16    1
@<TRIPOS>MOLECULE
*****
 30 33 0 0 0
SMALL
GASTEIGER

@<TRIPOS>ATOM
      1 C         142.1946  144.6255  159.6852 C.ar    1  UNL1        0.2553
      2 N         143.0626  143.7330  158.8487 N.ar    1  UNL1       -0.1957
      3 C         143.0356  143.8478  157.3533 C.ar    1  UNL1        0.1276
      4 N         143.9037  142.9552  156.5168 N.pl3   1  UNL1       -0.3427
      5 C         142.1407  144.8552  156.6944 C.ar    1  UNL1        0.0484
      6 C         141.2726  145.7478  157.5310 C.ar    1  UNL1        0.1363
      7 N         141.2996  145.6330  159.0263 N.ar    1  UNL1       -0.1951
      8 N         140.4982  146.6399  156.6066 N.am    1  UNL1       -0.2692
      9 C         140.8876  146.2986  155.1988 C.2     1  UNL1        0.2302
     10 O         140.3553  146.9466  153.9552 O.2     1  UNL1       -0.2744
     11 C         141.9027  145.1957  155.2531 C.3     1  UNL1        0.0932
     12 C         141.8757  145.3105  153.7578 C.3     1  UNL1        0.0137
     13 C         142.9121  144.1167  154.9948 C.3     1  UNL1        0.0137
     14 H         144.4911  142.2940  156.9492 H       1  UNL1        0.1437
     15 H         143.8860  143.0306  155.5353 H       1  UNL1        0.1437
     16 H         139.8484  147.3285  156.8766 H       1  UNL1        0.1563
     17 C         143.0056  144.2315  163.4604 C.ar    1  UNL1        0.0805
     18 N         143.4390  144.2774  162.0251 N.ar    1  UNL1       -0.1670
     19 N         142.2215  144.5107  161.1806 N.ar    1  UNL1       -0.1967
     20 C         141.0356  144.6089  162.0938 C.ar    1  UNL1        0.0871
     21 C         139.5772  144.8332  161.8244 C.ar    1  UNL1        0.0202
     22 C         138.6034  144.8849  162.9641 C.ar    1  UNL1        0.0129
     23 C         139.0879  144.7124  164.3732 C.ar    1  UNL1        0.0578
     24 CL        138.1140  144.7641  165.5128 Cl      1  UNL1       -0.0822
     25 C         140.5464  144.4881  164.6425 C.ar    1  UNL1        0.0141
     26 C         141.5202  144.4364  163.5029 C.ar    1  UNL1        0.0339
     27 C         143.9004  144.0182  164.6452 C.3     1  UNL1        0.0476
     28 C         143.9820  142.6661  165.2897 C.3     1  UNL1        0.0064
     29 C         143.0831  142.2192  167.6860 C.3     1  UNL1        0.0000
     30 C         142.8836  142.2013  166.1994 C.3     1  UNL1        0.0004
@<TRIPOS>BOND
     1    29    30    1
     2    30    28    1
     3    28    27    1
     4    27    17    1
     5    17    18   ar
     6    18    19   ar
     7    19     1    1
     8     1     2   ar
     9     2     3   ar
    10     3     4    1
    11     3     5   ar
    12     5     6   ar
    13     6     7   ar
    14     6     8    1
    15     8     9   am
    16     9    10    2
    17     9    11    1
    18    11    12    1
    19    11    13    1
    20    19    20   ar
    21    20    21   ar
    22    21    22   ar
    23    22    23   ar
    24    23    24    1
    25    23    25   ar
    26    25    26   ar
    27    26    17   ar
    28     7     1   ar
    29    26    20   ar
    30    11     5    1
    31     4    14    1
    32     4    15    1
    33     8    16    1
