@<TRIPOS>MOLECULE
*****
 31 34 0 0 0
SMALL
GASTEIGER

@<TRIPOS>ATOM
      1 N         140.2560  144.7732  161.8020 N.3     1  UNL1       -0.2689
      2 C         141.0224  145.0656  163.0577 C.3     1  UNL1        0.0724
      3 C         140.8763  144.1692  164.2515 C.3     1  UNL1        0.0175
      4 C         139.9637  142.9803  164.1894 C.3     1  UNL1        0.0060
      5 C         139.1973  142.6879  162.9336 C.3     1  UNL1        0.0175
      6 C         139.3434  143.5843  161.7399 C.3     1  UNL1        0.0724
      7 C         140.7302  143.2727  165.4453 C.3     1  UNL1        0.0217
      8 C         140.5840  142.3763  166.6390 C.3     1  UNL1        0.0937
      9 N         139.6715  141.1874  166.5769 N.am    1  UNL1       -0.2761
     10 C         139.5254  140.2910  167.7707 C.2     1  UNL1        0.2491
     11 O         138.6129  139.1021  167.7086 O.2     1  UNL1       -0.2699
     12 C         138.9051  140.8950  165.3211 C.3     1  UNL1        0.0937
     13 C         139.0512  141.7915  164.1273 C.3     1  UNL1        0.0217
     14 C         140.2918  140.5834  169.0265 C.ar    1  UNL1        0.0567
     15 C         139.7661  141.5872  170.0094 C.ar    1  UNL1        0.0252
     16 C         140.5325  141.8796  171.2652 C.ar    1  UNL1        0.0990
     17 N         141.8247  141.1683  171.5381 N.ar    1  UNL1       -0.2423
     18 C         142.3504  140.1645  170.5552 C.ar    1  UNL1        0.0990
     19 C         141.5839  139.8721  169.2994 C.ar    1  UNL1        0.0252
     20 C         140.4021  145.6697  160.6082 C.3     1  UNL1        0.1022
     21 C         142.1062  144.2551  159.2497 C.ar    1  UNL1        0.1358
     22 C         142.5758  143.6914  157.9415 C.ar    1  UNL1        0.0366
     23 C         141.8111  143.9783  156.6834 C.ar    1  UNL1        0.0031
     24 C         140.5768  144.8291  156.7335 C.ar    1  UNL1       -0.0001
     25 C         140.1071  145.3929  158.0418 C.ar    1  UNL1        0.0001
     26 C         140.8717  145.1059  159.2999 C.ar    1  UNL1        0.0279
     27 O         142.8709  143.9681  160.5079 O.3     1  UNL1       -0.4757
     28 C         143.0315  142.5541  160.9819 C.3     1  UNL1        0.2053
     29 C         144.3442  143.2344  163.1182 C.3     1  UNL1        0.0038
     30 C         143.4373  142.2799  162.3996 C.3     1  UNL1        0.0438
     31 C         142.9363  141.0510  163.0989 C.3     1  UNL1        0.0038
@<TRIPOS>BOND
     1    29    30    1
     2    30    31    1
     3    30    28    1
     4    28    27    1
     5    27    21    1
     6    21    22   ar
     7    22    23   ar
     8    23    24   ar
     9    24    25   ar
    10    25    26   ar
    11    26    20    1
    12    20     1    1
    13     1     2    1
    14     2     3    1
    15     3     4    1
    16     4     5    1
    17     5     6    1
    18     4     7    1
    19     7     8    1
    20     8     9    1
    21     9    10   am
    22    10    11    2
    23    10    14    1
    24    14    15   ar
    25    15    16   ar
    26    16    17   ar
    27    17    18   ar
    28    18    19   ar
    29     9    12    1
    30    12    13    1
    31    26    21   ar
    32     6     1    1
    33    19    14   ar
    34    13     4    1
@<TRIPOS>MOLECULE
*****
 31 34 0 0 0
SMALL
GASTEIGER

@<TRIPOS>ATOM
      1 N         141.3471  144.3627  161.6442 N.3     1  UNL1       -0.2689
      2 C         140.7628  144.7501  162.9702 C.3     1  UNL1        0.0724
      3 C         140.9969  143.8865  164.1740 C.3     1  UNL1        0.0175
      4 C         141.8154  142.6354  164.0518 C.3     1  UNL1        0.0060
      5 C         142.3997  142.2480  162.7258 C.3     1  UNL1        0.0175
      6 C         142.1655  143.1116  161.5220 C.3     1  UNL1        0.0724
      7 C         141.2310  143.0228  165.3780 C.3     1  UNL1        0.0217
      8 C         141.4652  142.1592  166.5818 C.3     1  UNL1        0.0937
      9 N         142.2836  140.9081  166.4596 N.am    1  UNL1       -0.2761
     10 C         142.5178  140.0445  167.6635 C.2     1  UNL1        0.2491
     11 O         143.3362  138.7934  167.5413 O.2     1  UNL1       -0.2699
     12 C         142.8680  140.5207  165.1336 C.3     1  UNL1        0.0937
     13 C         142.6338  141.3843  163.9296 C.3     1  UNL1        0.0217
     14 C         141.9335  140.4319  168.9896 C.ar    1  UNL1        0.0567
     15 C         140.6255  139.8464  169.4326 C.ar    1  UNL1        0.0252
     16 C         140.0412  140.2339  170.7587 C.ar    1  UNL1        0.0990
     17 N         140.7649  141.2068  171.6417 N.ar    1  UNL1       -0.2423
     18 C         142.0729  141.7923  171.1986 C.ar    1  UNL1        0.0990
     19 C         142.6572  141.4048  169.8725 C.ar    1  UNL1        0.0252
     20 C         141.1130  145.2264  160.4402 C.3     1  UNL1        0.1022
     21 C         139.6798  143.7076  158.8944 C.ar    1  UNL1        0.1358
     22 C         139.4375  143.0774  157.5550 C.ar    1  UNL1        0.0366
     23 C         140.3858  143.3357  156.4219 C.ar    1  UNL1        0.0031
     24 C         141.5766  144.2243  156.6283 C.ar    1  UNL1       -0.0001
     25 C         141.8190  144.8545  157.9678 C.ar    1  UNL1        0.0001
     26 C         140.8706  144.5962  159.1008 C.ar    1  UNL1        0.0279
     27 O         138.7314  143.4492  160.0275 O.3     1  UNL1       -0.4757
     28 C         138.5901  142.0645  160.5864 C.3     1  UNL1        0.2053
     29 C         137.6531  142.8794  162.8684 C.3     1  UNL1        0.0038
     30 C         138.4102  141.8661  162.0623 C.3     1  UNL1        0.0438
     31 C         138.9874  140.6544  162.7320 C.3     1  UNL1        0.0038
@<TRIPOS>BOND
     1    29    30    1
     2    30    31    1
     3    30    28    1
     4    28    27    1
     5    27    21    1
     6    21    22   ar
     7    22    23   ar
     8    23    24   ar
     9    24    25   ar
    10    25    26   ar
    11    26    20    1
    12    20     1    1
    13     1     2    1
    14     2     3    1
    15     3     4    1
    16     4     5    1
    17     5     6    1
    18     4     7    1
    19     7     8    1
    20     8     9    1
    21     9    10   am
    22    10    11    2
    23    10    14    1
    24    14    15   ar
    25    15    16   ar
    26    16    17   ar
    27    17    18   ar
    28    18    19   ar
    29     9    12    1
    30    12    13    1
    31    26    21   ar
    32     6     1    1
    33    19    14   ar
    34    13     4    1
@<TRIPOS>MOLECULE
*****
 31 34 0 0 0
SMALL
GASTEIGER

@<TRIPOS>ATOM
      1 N         142.4497  142.7303  161.4518 N.3     1  UNL1       -0.2689
      2 C         142.9969  143.2604  162.7439 C.3     1  UNL1        0.0724
      3 C         142.4502  142.7642  164.0496 C.3     1  UNL1        0.0175
      4 C         141.3563  141.7379  164.0631 C.3     1  UNL1        0.0060
      5 C         140.8091  141.2078  162.7710 C.3     1  UNL1        0.0175
      6 C         141.3558  141.7041  161.4653 C.3     1  UNL1        0.0724
      7 C         141.9034  142.2679  165.3553 C.3     1  UNL1        0.0217
      8 C         141.3567  141.7717  166.6610 C.3     1  UNL1        0.0937
      9 N         140.2628  140.7455  166.6745 N.am    1  UNL1       -0.2761
     10 C         139.7161  140.2492  167.9803 C.2     1  UNL1        0.2491
     11 O         138.6222  139.2230  167.9938 O.2     1  UNL1       -0.2699
     12 C         139.7156  140.2154  165.3824 C.3     1  UNL1        0.0937
     13 C         140.2624  140.7116  164.0767 C.3     1  UNL1        0.0217
     14 C         140.2632  140.7793  169.2724 C.ar    1  UNL1        0.0567
     15 C         141.3888  140.0646  169.9596 C.ar    1  UNL1        0.0252
     16 C         141.9360  140.5946  171.2517 C.ar    1  UNL1        0.0990
     17 N         141.3576  141.8394  171.8567 N.ar    1  UNL1       -0.2423
     18 C         140.2320  142.5542  171.1695 C.ar    1  UNL1        0.0990
     19 C         139.6848  142.0240  169.8773 C.ar    1  UNL1        0.0252
     20 C         142.9965  143.2265  160.1460 C.3     1  UNL1        0.1022
     21 C         141.1298  144.9721  159.6784 C.ar    1  UNL1        0.1358
     22 C         140.2318  145.6865  158.7123 C.ar    1  UNL1        0.0366
     23 C         140.3026  145.3698  157.2478 C.ar    1  UNL1        0.0031
     24 C         141.2714  144.3388  156.7494 C.ar    1  UNL1       -0.0001
     25 C         142.1693  143.6243  157.7155 C.ar    1  UNL1        0.0001
     26 C         142.0985  143.9409  159.1800 C.ar    1  UNL1        0.0279
     27 O         141.0590  145.2887  161.1428 O.3     1  UNL1       -0.4757
     28 C         139.7444  145.6475  161.7699 C.3     1  UNL1        0.2053
     29 C         139.4670  144.9276  164.2508 C.3     1  UNL1        0.0038
     30 C         139.1335  144.7443  162.7999 C.3     1  UNL1        0.0438
     31 C         138.1890  143.6577  162.3790 C.3     1  UNL1        0.0038
@<TRIPOS>BOND
     1    29    30    1
     2    30    31    1
     3    30    28    1
     4    28    27    1
     5    27    21    1
     6    21    22   ar
     7    22    23   ar
     8    23    24   ar
     9    24    25   ar
    10    25    26   ar
    11    26    20    1
    12    20     1    1
    13     1     2    1
    14     2     3    1
    15     3     4    1
    16     4     5    1
    17     5     6    1
    18     4     7    1
    19     7     8    1
    20     8     9    1
    21     9    10   am
    22    10    11    2
    23    10    14    1
    24    14    15   ar
    25    15    16   ar
    26    16    17   ar
    27    17    18   ar
    28    18    19   ar
    29     9    12    1
    30    12    13    1
    31    26    21   ar
    32     6     1    1
    33    19    14   ar
    34    13     4    1
@<TRIPOS>MOLECULE
*****
 31 34 0 0 0
SMALL
GASTEIGER

@<TRIPOS>ATOM
      1 N         140.3525  140.7160  161.1049 N.3     1  UNL1       -0.2689
      2 C         141.2492  141.3838  162.1049 C.3     1  UNL1        0.0724
      3 C         140.9842  141.2259  163.5728 C.3     1  UNL1        0.0175
      4 C         139.8225  140.4004  164.0407 C.3     1  UNL1        0.0060
      5 C         138.9258  139.7326  163.0407 C.3     1  UNL1        0.0175
      6 C         139.1908  139.8904  161.5728 C.3     1  UNL1        0.0724
      7 C         140.7192  141.0682  165.0408 C.3     1  UNL1        0.0217
      8 C         140.4542  140.9103  166.5087 C.3     1  UNL1        0.0937
      9 N         139.2925  140.0848  166.9766 N.am    1  UNL1       -0.2761
     10 C         139.0276  139.9270  168.4447 C.2     1  UNL1        0.2491
     11 O         137.8659  139.1014  168.9126 O.2     1  UNL1       -0.2699
     12 C         138.3959  139.4170  165.9767 C.3     1  UNL1        0.0937
     13 C         138.6608  139.5748  164.5086 C.3     1  UNL1        0.0217
     14 C         139.9243  140.5947  169.4446 C.ar    1  UNL1        0.0567
     15 C         141.1743  139.9071  169.9079 C.ar    1  UNL1        0.0252
     16 C         142.0709  140.5749  170.9079 C.ar    1  UNL1        0.0990
     17 N         141.7176  141.9303  171.4447 N.ar    1  UNL1       -0.2423
     18 C         140.4676  142.6179  170.9814 C.ar    1  UNL1        0.0990
     19 C         139.5709  141.9501  169.9813 C.ar    1  UNL1        0.0252
     20 C         140.6175  140.8738  159.6369 C.3     1  UNL1        0.1022
     21 C         142.2749  139.0226  158.8778 C.ar    1  UNL1        0.1358
     22 C         142.5815  137.8186  158.0374 C.ar    1  UNL1        0.0366
     23 C         141.5374  137.2618  157.1155 C.ar    1  UNL1        0.0031
     24 C         140.1867  137.9090  157.0341 C.ar    1  UNL1       -0.0001
     25 C         139.8800  139.1130  157.8746 C.ar    1  UNL1        0.0001
     26 C         140.9241  139.6698  158.7964 C.ar    1  UNL1        0.0279
     27 O         143.3190  139.5794  159.7997 O.3     1  UNL1       -0.4757
     28 C         143.9931  138.6845  160.7970 C.3     1  UNL1        0.2053
     29 C         144.1275  139.1255  163.3538 C.3     1  UNL1        0.0038
     30 C         143.4188  138.5292  162.1740 C.3     1  UNL1        0.0438
     31 C         142.1357  137.7777  162.3710 C.3     1  UNL1        0.0038
@<TRIPOS>BOND
     1    29    30    1
     2    30    31    1
     3    30    28    1
     4    28    27    1
     5    27    21    1
     6    21    22   ar
     7    22    23   ar
     8    23    24   ar
     9    24    25   ar
    10    25    26   ar
    11    26    20    1
    12    20     1    1
    13     1     2    1
    14     2     3    1
    15     3     4    1
    16     4     5    1
    17     5     6    1
    18     4     7    1
    19     7     8    1
    20     8     9    1
    21     9    10   am
    22    10    11    2
    23    10    14    1
    24    14    15   ar
    25    15    16   ar
    26    16    17   ar
    27    17    18   ar
    28    18    19   ar
    29     9    12    1
    30    12    13    1
    31    26    21   ar
    32     6     1    1
    33    19    14   ar
    34    13     4    1
@<TRIPOS>MOLECULE
*****
 31 34 0 0 0
SMALL
GASTEIGER

@<TRIPOS>ATOM
      1 N         141.8529  139.4554  160.9828 N.3     1  UNL1       -0.2689
      2 C         141.4631  140.6843  161.7495 C.3     1  UNL1        0.0724
      3 C         141.6209  140.7193  163.2408 C.3     1  UNL1        0.0175
      4 C         142.1685  139.5255  163.9653 C.3     1  UNL1        0.0060
      5 C         142.5584  138.2966  163.1986 C.3     1  UNL1        0.0175
      6 C         142.4006  138.2616  161.7073 C.3     1  UNL1        0.0724
      7 C         141.7786  140.7544  164.7321 C.3     1  UNL1        0.0217
      8 C         141.9364  140.7894  166.2233 C.3     1  UNL1        0.0937
      9 N         142.4841  139.5956  166.9478 N.am    1  UNL1       -0.2761
     10 C         142.6419  139.6307  168.4392 C.2     1  UNL1        0.2491
     11 O         143.1895  138.4369  169.1637 O.2     1  UNL1       -0.2699
     12 C         142.8739  138.3668  166.1811 C.3     1  UNL1        0.0937
     13 C         142.7161  138.3317  164.6898 C.3     1  UNL1        0.0217
     14 C         142.2520  140.8595  169.2059 C.ar    1  UNL1        0.0567
     15 C         143.2970  141.8613  169.5990 C.ar    1  UNL1        0.0252
     16 C         142.9071  143.0901  170.3657 C.ar    1  UNL1        0.0990
     17 N         141.4722  143.3173  170.7394 N.ar    1  UNL1       -0.2423
     18 C         140.4272  142.3156  170.3462 C.ar    1  UNL1        0.0990
     19 C         140.8172  141.0867  169.5795 C.ar    1  UNL1        0.0252
     20 C         141.6951  139.4203  159.4915 C.3     1  UNL1        0.1022
     21 C         139.1643  139.9028  159.1563 C.ar    1  UNL1        0.1358
     22 C         138.0673  140.6870  158.4996 C.ar    1  UNL1        0.0366
     23 C         138.4039  141.7730  157.5212 C.ar    1  UNL1        0.0031
     24 C         139.8375  142.0748  157.1996 C.ar    1  UNL1       -0.0001
     25 C         140.9347  141.2906  157.8563 C.ar    1  UNL1        0.0001
     26 C         140.5981  140.2045  158.8347 C.ar    1  UNL1        0.0279
     27 O         138.8277  138.8167  160.1347 O.3     1  UNL1       -0.4757
     28 C         137.8688  139.0880  161.2558 C.3     1  UNL1        0.2053
     29 C         138.0954  140.0375  163.6635 C.3     1  UNL1        0.0038
     30 C         138.3141  138.9271  162.6791 C.3     1  UNL1        0.0438
     31 C         138.9781  137.6557  163.1180 C.3     1  UNL1        0.0038
@<TRIPOS>BOND
     1    29    30    1
     2    30    31    1
     3    30    28    1
     4    28    27    1
     5    27    21    1
     6    21    22   ar
     7    22    23   ar
     8    23    24   ar
     9    24    25   ar
    10    25    26   ar
    11    26    20    1
    12    20     1    1
    13     1     2    1
    14     2     3    1
    15     3     4    1
    16     4     5    1
    17     5     6    1
    18     4     7    1
    19     7     8    1
    20     8     9    1
    21     9    10   am
    22    10    11    2
    23    10    14    1
    24    14    15   ar
    25    15    16   ar
    26    16    17   ar
    27    17    18   ar
    28    18    19   ar
    29     9    12    1
    30    12    13    1
    31    26    21   ar
    32     6     1    1
    33    19    14   ar
    34    13     4    1
@<TRIPOS>MOLECULE
*****
 31 34 0 0 0
SMALL
GASTEIGER

@<TRIPOS>ATOM
      1 N         139.0769  141.6535  161.3503 N.3     1  UNL1       -0.2689
      2 C         138.8107  142.4413  162.5987 C.3     1  UNL1        0.0724
      3 C         139.4892  142.0646  163.8822 C.3     1  UNL1        0.0175
      4 C         140.4341  140.9001  163.9175 C.3     1  UNL1        0.0060
      5 C         140.7003  140.1123  162.6691 C.3     1  UNL1        0.0175
      6 C         140.0217  140.4890  161.3856 C.3     1  UNL1        0.0724
      7 C         140.1678  141.6880  165.1659 C.3     1  UNL1        0.0217
      8 C         140.8464  141.3113  166.4495 C.3     1  UNL1        0.0937
      9 N         141.7912  140.1468  166.4847 N.am    1  UNL1       -0.2761
     10 C         142.4698  139.7701  167.7684 C.2     1  UNL1        0.2491
     11 O         143.4146  138.6056  167.8036 O.2     1  UNL1       -0.2699
     12 C         142.0575  139.3590  165.2364 C.3     1  UNL1        0.0937
     13 C         141.3789  139.7356  163.9527 C.3     1  UNL1        0.0217
     14 C         142.2036  140.5580  169.0167 C.ar    1  UNL1        0.0567
     15 C         142.9691  141.8197  169.2849 C.ar    1  UNL1        0.0252
     16 C         142.7029  142.6075  170.5332 C.ar    1  UNL1        0.0990
     17 N         141.6710  142.1336  171.5135 N.ar    1  UNL1       -0.2423
     18 C         140.9054  140.8719  171.2453 C.ar    1  UNL1        0.0990
     19 C         141.1717  140.0840  169.9968 C.ar    1  UNL1        0.0252
     20 C         138.3983  142.0302  160.0666 C.3     1  UNL1        0.1022
     21 C         139.8156  143.9001  158.9510 C.ar    1  UNL1        0.1358
     22 C         140.6269  144.3986  157.7920 C.ar    1  UNL1        0.0366
     23 C         140.8322  143.5256  156.5896 C.ar    1  UNL1        0.0031
     24 C         140.2262  142.1542  156.5462 C.ar    1  UNL1       -0.0001
     25 C         139.4149  141.6556  157.7052 C.ar    1  UNL1        0.0001
     26 C         139.2096  142.5286  158.9076 C.ar    1  UNL1        0.0279
     27 O         139.6103  144.7731  160.1534 O.3     1  UNL1       -0.4757
     28 C         140.7880  145.4183  160.8216 C.3     1  UNL1        0.2053
     29 C         142.3030  143.4476  161.5774 C.3     1  UNL1        0.0038
     30 C         141.5283  144.6899  161.9039 C.3     1  UNL1        0.0438
     31 C         141.4938  145.2037  163.3127 C.3     1  UNL1        0.0038
@<TRIPOS>BOND
     1    29    30    1
     2    30    31    1
     3    30    28    1
     4    28    27    1
     5    27    21    1
     6    21    22   ar
     7    22    23   ar
     8    23    24   ar
     9    24    25   ar
    10    25    26   ar
    11    26    20    1
    12    20     1    1
    13     1     2    1
    14     2     3    1
    15     3     4    1
    16     4     5    1
    17     5     6    1
    18     4     7    1
    19     7     8    1
    20     8     9    1
    21     9    10   am
    22    10    11    2
    23    10    14    1
    24    14    15   ar
    25    15    16   ar
    26    16    17   ar
    27    17    18   ar
    28    18    19   ar
    29     9    12    1
    30    12    13    1
    31    26    21   ar
    32     6     1    1
    33    19    14   ar
    34    13     4    1
@<TRIPOS>MOLECULE
*****
 31 34 0 0 0
SMALL
GASTEIGER

@<TRIPOS>ATOM
      1 N         142.8390  139.0663  165.5924 N.3     1  UNL1       -0.2689
      2 C         142.0293  138.0647  164.8237 C.3     1  UNL1        0.0724
      3 C         142.1097  138.0257  163.3264 C.3     1  UNL1        0.0175
      4 C         142.9998  138.9884  162.5978 C.3     1  UNL1        0.0060
      5 C         143.8096  139.9900  163.3665 C.3     1  UNL1        0.0175
      6 C         143.7292  140.0290  164.8638 C.3     1  UNL1        0.0724
      7 C         142.1901  137.9867  161.8290 C.3     1  UNL1        0.0217
      8 C         142.2705  137.9477  160.3317 C.3     1  UNL1        0.0937
      9 N         143.1607  138.9104  159.6031 N.am    1  UNL1       -0.2761
     10 C         143.2410  138.8714  158.1057 C.2     1  UNL1        0.2491
     11 O         144.1312  139.8341  157.3771 O.2     1  UNL1       -0.2699
     12 C         143.9704  139.9121  160.3718 C.3     1  UNL1        0.0937
     13 C         143.8900  139.9511  161.8692 C.3     1  UNL1        0.0217
     14 C         142.4313  137.8697  157.3370 C.ar    1  UNL1        0.0567
     15 C         143.0123  136.5252  157.0135 C.ar    1  UNL1        0.0252
     16 C         142.2026  135.5235  156.2448 C.ar    1  UNL1        0.0990
     17 N         140.8118  135.8664  155.7995 N.ar    1  UNL1       -0.2423
     18 C         140.2308  137.2109  156.1231 C.ar    1  UNL1        0.0990
     19 C         141.0406  138.2126  156.8918 C.ar    1  UNL1        0.0252
     20 C         142.7586  139.1053  167.0898 C.3     1  UNL1        0.1022
     21 C         140.7249  140.5861  167.7388 C.ar    1  UNL1        0.1358
     22 C         140.1658  141.7950  168.4286 C.ar    1  UNL1        0.0366
     23 C         141.0812  142.7321  169.1592 C.ar    1  UNL1        0.0031
     24 C         142.5558  142.4603  169.2000 C.ar    1  UNL1       -0.0001
     25 C         143.1150  141.2513  168.5102 C.ar    1  UNL1        0.0001
     26 C         142.1995  140.3142  167.7796 C.ar    1  UNL1        0.0279
     27 O         139.8094  139.6490  167.0082 O.3     1  UNL1       -0.4757
     28 C         138.8417  140.1840  165.9947 C.3     1  UNL1        0.2053
     29 C         138.6473  139.4450  163.5116 C.3     1  UNL1        0.0038
     30 C         139.2590  140.3252  164.5608 C.3     1  UNL1        0.0438
     31 C         140.2879  141.3466  164.1762 C.3     1  UNL1        0.0038
@<TRIPOS>BOND
     1    29    30    1
     2    30    31    1
     3    30    28    1
     4    28    27    1
     5    27    21    1
     6    21    22   ar
     7    22    23   ar
     8    23    24   ar
     9    24    25   ar
    10    25    26   ar
    11    26    20    1
    12    20     1    1
    13     1     2    1
    14     2     3    1
    15     3     4    1
    16     4     5    1
    17     5     6    1
    18     4     7    1
    19     7     8    1
    20     8     9    1
    21     9    10   am
    22    10    11    2
    23    10    14    1
    24    14    15   ar
    25    15    16   ar
    26    16    17   ar
    27    17    18   ar
    28    18    19   ar
    29     9    12    1
    30    12    13    1
    31    26    21   ar
    32     6     1    1
    33    19    14   ar
    34    13     4    1
@<TRIPOS>MOLECULE
*****
 31 34 0 0 0
SMALL
GASTEIGER

@<TRIPOS>ATOM
      1 N         142.6270  139.0344  165.8891 N.3     1  UNL1       -0.2689
      2 C         143.7439  138.8735  164.9009 C.3     1  UNL1        0.0724
      3 C         143.4374  138.7284  163.4398 C.3     1  UNL1        0.0175
      4 C         142.0140  138.7440  162.9669 C.3     1  UNL1        0.0060
      5 C         140.8971  138.9049  163.9551 C.3     1  UNL1        0.0175
      6 C         141.2036  139.0500  165.4162 C.3     1  UNL1        0.0724
      7 C         143.1309  138.5832  161.9785 C.3     1  UNL1        0.0217
      8 C         142.8244  138.4380  160.5174 C.3     1  UNL1        0.0937
      9 N         141.4010  138.4537  160.0445 N.am    1  UNL1       -0.2761
     10 C         141.0945  138.3085  158.5833 C.2     1  UNL1        0.2491
     11 O         139.6711  138.3242  158.1104 O.2     1  UNL1       -0.2699
     12 C         140.2841  138.6145  161.0327 C.3     1  UNL1        0.0937
     13 C         140.5906  138.7597  162.4939 C.3     1  UNL1        0.0217
     14 C         142.2114  138.1477  157.5951 C.ar    1  UNL1        0.0567
     15 C         142.6095  136.7785  157.1294 C.ar    1  UNL1        0.0252
     16 C         143.7264  136.6177  156.1412 C.ar    1  UNL1        0.0990
     17 N         144.4453  137.8261  155.6186 N.ar    1  UNL1       -0.2423
     18 C         144.0472  139.1953  156.0843 C.ar    1  UNL1        0.0990
     19 C         142.9302  139.3561  157.0725 C.ar    1  UNL1        0.0252
     20 C         142.9335  139.1795  167.3503 C.3     1  UNL1        0.1022
     21 C         142.3214  141.6406  167.9147 C.ar    1  UNL1        0.1358
     22 C         141.5625  142.6327  168.7452 C.ar    1  UNL1        0.0366
     23 C         140.6570  142.1560  169.8419 C.ar    1  UNL1        0.0031
     24 C         140.5103  140.6871  170.1081 C.ar    1  UNL1       -0.0001
     25 C         141.2692  139.6949  169.2775 C.ar    1  UNL1        0.0001
     26 C         142.1747  140.1717  168.1808 C.ar    1  UNL1        0.0279
     27 O         143.2269  142.1173  166.8180 O.3     1  UNL1       -0.4757
     28 C         142.6452  142.6129  165.5273 C.3     1  UNL1        0.2053
     29 C         142.6888  142.4084  162.9376 C.3     1  UNL1        0.0038
     30 C         143.4149  142.4578  164.2492 C.3     1  UNL1        0.0438
     31 C         144.9108  142.3522  164.2827 C.3     1  UNL1        0.0038
@<TRIPOS>BOND
     1    29    30    1
     2    30    31    1
     3    30    28    1
     4    28    27    1
     5    27    21    1
     6    21    22   ar
     7    22    23   ar
     8    23    24   ar
     9    24    25   ar
    10    25    26   ar
    11    26    20    1
    12    20     1    1
    13     1     2    1
    14     2     3    1
    15     3     4    1
    16     4     5    1
    17     5     6    1
    18     4     7    1
    19     7     8    1
    20     8     9    1
    21     9    10   am
    22    10    11    2
    23    10    14    1
    24    14    15   ar
    25    15    16   ar
    26    16    17   ar
    27    17    18   ar
    28    18    19   ar
    29     9    12    1
    30    12    13    1
    31    26    21   ar
    32     6     1    1
    33    19    14   ar
    34    13     4    1
@<TRIPOS>MOLECULE
*****
 31 34 0 0 0
SMALL
GASTEIGER

@<TRIPOS>ATOM
      1 N         141.8069  140.9299  161.1084 N.3     1  UNL1       -0.2689
      2 C         141.1821  141.8131  162.1474 C.3     1  UNL1        0.0724
      3 C         141.3435  141.4886  163.6029 C.3     1  UNL1        0.0175
      4 C         142.1297  140.2810  164.0194 C.3     1  UNL1        0.0060
      5 C         142.7545  139.3978  162.9804 C.3     1  UNL1        0.0175
      6 C         142.5931  139.7223  161.5249 C.3     1  UNL1        0.0724
      7 C         141.5048  141.1642  165.0585 C.3     1  UNL1        0.0217
      8 C         141.6662  140.8397  166.5141 C.3     1  UNL1        0.0937
      9 N         142.4524  139.6321  166.9306 N.am    1  UNL1       -0.2761
     10 C         142.6138  139.3076  168.3862 C.2     1  UNL1        0.2491
     11 O         143.4000  138.1000  168.8028 O.2     1  UNL1       -0.2699
     12 C         143.0772  138.7489  165.8916 C.3     1  UNL1        0.0937
     13 C         142.9158  139.0733  164.4360 C.3     1  UNL1        0.0217
     14 C         141.9890  140.1908  169.4252 C.ar    1  UNL1        0.0567
     15 C         142.7660  141.3378  170.0003 C.ar    1  UNL1        0.0252
     16 C         142.1412  142.2209  171.0393 C.ar    1  UNL1        0.0990
     17 N         140.7393  141.9572  171.5033 N.ar    1  UNL1       -0.2423
     18 C         139.9623  140.8102  170.9282 C.ar    1  UNL1        0.0990
     19 C         140.5872  139.9270  169.8892 C.ar    1  UNL1        0.0252
     20 C         141.6455  141.2543  159.6527 C.3     1  UNL1        0.1022
     21 C         143.9403  142.3577  159.1361 C.ar    1  UNL1        0.1358
     22 C         145.1496  142.4905  158.2588 C.ar    1  UNL1        0.0366
     23 C         145.2736  141.6528  157.0207 C.ar    1  UNL1        0.0031
     24 C         144.1883  140.6823  156.6599 C.ar    1  UNL1       -0.0001
     25 C         142.9789  140.5494  157.5373 C.ar    1  UNL1        0.0001
     26 C         142.8549  141.3871  158.7754 C.ar    1  UNL1        0.0279
     27 O         143.8162  143.1954  160.3742 O.3     1  UNL1       -0.4757
     28 C         144.7390  142.9616  161.5335 C.3     1  UNL1        0.2053
     29 C         144.8037  142.7369  164.1210 C.3     1  UNL1        0.0038
     30 C         144.3844  143.4884  162.8924 C.3     1  UNL1        0.0438
     31 C         143.6105  144.7667  163.0228 C.3     1  UNL1        0.0038
@<TRIPOS>BOND
     1    29    30    1
     2    30    31    1
     3    30    28    1
     4    28    27    1
     5    27    21    1
     6    21    22   ar
     7    22    23   ar
     8    23    24   ar
     9    24    25   ar
    10    25    26   ar
    11    26    20    1
    12    20     1    1
    13     1     2    1
    14     2     3    1
    15     3     4    1
    16     4     5    1
    17     5     6    1
    18     4     7    1
    19     7     8    1
    20     8     9    1
    21     9    10   am
    22    10    11    2
    23    10    14    1
    24    14    15   ar
    25    15    16   ar
    26    16    17   ar
    27    17    18   ar
    28    18    19   ar
    29     9    12    1
    30    12    13    1
    31    26    21   ar
    32     6     1    1
    33    19    14   ar
    34    13     4    1
