@<TRIPOS>MOLECULE
*****
 38 41 0 0 0
SMALL
GASTEIGER

@<TRIPOS>ATOM
      1 S         139.1405  140.0097  164.9147 S.O2    1  UNL1        0.0134
      2 O         137.7954  140.1145  164.9607 O.2     1  UNL1       -0.1683
      3 O         140.6167  139.8799  164.6818 O.2     1  UNL1       -0.1683
      4 C         139.3825  140.1120  166.3915 C.3     1  UNL1        0.1845
      5 C         139.9852  141.4403  166.0414 C.3     1  UNL1        0.0313
      6 C         140.4632  142.0813  167.3105 C.3     1  UNL1        0.0024
      7 C         140.1558  141.1493  168.4450 C.3     1  UNL1        0.0048
      8 C         139.7872  140.1203  169.4722 C.3     1  UNL1        0.0172
      9 C         140.0938  140.3627  170.9203 C.3     1  UNL1        0.0686
     10 N         140.7692  141.6343  171.3412 N.3     1  UNL1       -0.2975
     11 C         141.1378  142.6633  170.3141 C.3     1  UNL1        0.0686
     12 C         140.8311  142.4208  168.8659 C.3     1  UNL1        0.0172
     13 C         139.4879  139.9322  167.8770 C.3     1  UNL1        0.0314
     14 H         141.6329  141.3666  171.8131 H       1  UNL1        0.1232
     15 C         138.7292  138.7625  166.4328 C.2     1  UNL1        0.2644
     16 O         139.1119  137.6537  165.7644 O.2     1  UNL1       -0.2713
     17 N         137.5151  138.5426  167.2858 N.am    1  UNL1       -0.1956
     18 O         136.8619  137.1930  167.3272 O.3     1  UNL1       -0.2951
     19 H         137.1470  139.2842  167.8186 H       1  UNL1        0.1823
     20 H         137.3459  136.5817  166.7501 H       1  UNL1        0.2414
     21 C         138.4145  139.7028  160.4843 C.ar    1  UNL1        0.1454
     22 C         137.7380  140.7775  161.2825 C.ar    1  UNL1        0.0388
     23 C         137.9800  140.8799  162.7593 C.ar    1  UNL1        0.0215
     24 C         138.8985  139.9074  163.4379 C.ar    1  UNL1        0.1063
     25 C         139.5750  138.8326  162.6397 C.ar    1  UNL1        0.0215
     26 C         139.3330  138.7303  161.1629 C.ar    1  UNL1        0.0388
     27 O         138.1725  139.6005  159.0075 O.3     1  UNL1       -0.4535
     28 C         138.1514  143.3156  156.4682 C.ar    1  UNL1        0.0536
     29 C         139.2819  143.0653  157.4218 C.ar    1  UNL1        0.0076
     30 C         139.2889  141.8270  158.2682 C.ar    1  UNL1        0.0376
     31 C         138.1654  140.8389  158.1610 C.ar    1  UNL1        0.1453
     32 C         137.0349  141.0892  157.2075 C.ar    1  UNL1        0.0376
     33 C         137.0279  142.3275  156.3611 C.ar    1  UNL1        0.0076
     34 C         139.1232  146.8903  155.0444 C.3     1  UNL1        0.1109
     35 N         139.1302  145.6519  155.8908 N.am    1  UNL1       -0.2992
     36 C         138.1443  144.5539  155.6218 C.2     1  UNL1        0.2459
     37 O         137.1514  144.6943  154.5062 O.2     1  UNL1       -0.2701
     38 H         139.7819  145.5598  156.6230 H       1  UNL1        0.1498
@<TRIPOS>BOND
     1    34    35    1
     2    35    36   am
     3    36    37    2
     4    36    28    1
     5    28    29   ar
     6    29    30   ar
     7    30    31   ar
     8    31    27    1
     9    27    21    1
    10    21    22   ar
    11    22    23   ar
    12    23    24   ar
    13    24     1    1
    14     1     2    2
    15     1     3    2
    16     1     4    1
    17     4    15    1
    18    15    16    2
    19    15    17   am
    20    17    18    1
    21     4     5    1
    22     5     6    1
    23     6     7    1
    24     7     8    1
    25     8     9    1
    26     9    10    1
    27    10    11    1
    28    11    12    1
    29     7    13    1
    30    24    25   ar
    31    25    26   ar
    32    31    32   ar
    33    32    33   ar
    34    33    28   ar
    35    26    21   ar
    36    13     4    1
    37    12     7    1
    38    35    38    1
    39    17    19    1
    40    18    20    1
    41    10    14    1
@<TRIPOS>MOLECULE
*****
 38 41 0 0 0
SMALL
GASTEIGER

@<TRIPOS>ATOM
      1 S         141.7292  143.7425  159.4563 S.O2    1  UNL1        0.0134
      2 O         142.2373  144.7225  160.2333 O.2     1  UNL1       -0.1683
      3 O         141.2443  142.5359  158.7085 O.2     1  UNL1       -0.1683
      4 C         141.0448  144.6334  158.4624 C.3     1  UNL1        0.1845
      5 C         142.1763  144.2343  157.5621 C.3     1  UNL1        0.0313
      6 C         141.9846  144.9231  156.2435 C.3     1  UNL1        0.0024
      7 C         140.7346  145.7480  156.3288 C.3     1  UNL1        0.0048
      8 C         139.4702  146.5206  156.5614 C.3     1  UNL1        0.0172
      9 C         138.9010  147.3745  155.4674 C.3     1  UNL1        0.0686
     10 N         139.5963  147.4558  154.1408 N.3     1  UNL1       -0.2975
     11 C         140.8608  146.6832  153.9081 C.3     1  UNL1        0.0686
     12 C         141.4299  145.8293  155.0021 C.3     1  UNL1        0.0172
     13 C         140.1538  145.5690  157.7001 C.3     1  UNL1        0.0314
     14 H         139.8190  148.4389  153.9848 H       1  UNL1        0.1232
     15 C         140.0564  144.8464  159.5704 C.2     1  UNL1        0.2644
     16 O         139.2336  143.9241  160.1135 O.2     1  UNL1       -0.2713
     17 N         139.9084  146.2029  160.1931 N.am    1  UNL1       -0.1956
     18 O         138.9199  146.4157  161.3011 O.3     1  UNL1       -0.2951
     19 H         140.4600  146.9536  159.8746 H       1  UNL1        0.1823
     20 H         138.4631  145.5815  161.4915 H       1  UNL1        0.2414
     21 C         143.7822  141.0695  162.4380 C.ar    1  UNL1        0.1454
     22 C         142.4673  140.6596  161.8438 C.ar    1  UNL1        0.0388
     23 C         141.7830  141.5505  160.8499 C.ar    1  UNL1        0.0215
     24 C         142.4135  142.8515  160.4502 C.ar    1  UNL1        0.1063
     25 C         143.7283  143.2615  161.0443 C.ar    1  UNL1        0.0215
     26 C         144.4127  142.3706  162.0382 C.ar    1  UNL1        0.0388
     27 O         144.4665  140.1786  163.4319 O.3     1  UNL1       -0.4535
     28 C         142.7488  139.6770  167.5608 C.ar    1  UNL1        0.0536
     29 C         143.3649  138.5042  166.8573 C.ar    1  UNL1        0.0076
     30 C         143.9375  138.6714  165.4810 C.ar    1  UNL1        0.0376
     31 C         143.8939  140.0114  164.8082 C.ar    1  UNL1        0.1453
     32 C         143.2778  141.1842  165.5118 C.ar    1  UNL1        0.0376
     33 C         142.7052  141.0169  166.8881 C.ar    1  UNL1        0.0076
     34 C         140.3064  140.0051  170.6716 C.3     1  UNL1        0.1109
     35 N         140.8790  140.1722  169.2953 N.am    1  UNL1       -0.2992
     36 C         142.1763  139.5098  168.9371 C.2     1  UNL1        0.2459
     37 O         142.9010  138.6803  169.9554 O.2     1  UNL1       -0.2701
     38 H         140.4033  140.7167  168.6270 H       1  UNL1        0.1498
@<TRIPOS>BOND
     1    34    35    1
     2    35    36   am
     3    36    37    2
     4    36    28    1
     5    28    29   ar
     6    29    30   ar
     7    30    31   ar
     8    31    27    1
     9    27    21    1
    10    21    22   ar
    11    22    23   ar
    12    23    24   ar
    13    24     1    1
    14     1     2    2
    15     1     3    2
    16     1     4    1
    17     4    15    1
    18    15    16    2
    19    15    17   am
    20    17    18    1
    21     4     5    1
    22     5     6    1
    23     6     7    1
    24     7     8    1
    25     8     9    1
    26     9    10    1
    27    10    11    1
    28    11    12    1
    29     7    13    1
    30    24    25   ar
    31    25    26   ar
    32    31    32   ar
    33    32    33   ar
    34    33    28   ar
    35    26    21   ar
    36    13     4    1
    37    12     7    1
    38    35    38    1
    39    17    19    1
    40    18    20    1
    41    10    14    1
@<TRIPOS>MOLECULE
*****
 38 41 0 0 0
SMALL
GASTEIGER

@<TRIPOS>ATOM
      1 S         141.4576  139.4430  164.9050 S.O2    1  UNL1        0.0134
      2 O         141.1015  138.1423  164.8432 O.2     1  UNL1       -0.1683
      3 O         141.9120  140.8688  164.8014 O.2     1  UNL1       -0.1683
      4 C         141.0029  139.6903  166.3129 C.3     1  UNL1        0.1845
      5 C         142.4719  139.7612  166.6079 C.3     1  UNL1        0.0313
      6 C         142.6378  140.0267  168.0748 C.3     1  UNL1        0.0024
      7 C         141.2713  140.1199  168.6866 C.3     1  UNL1        0.0048
      8 C         139.8477  140.1866  169.1544 C.3     1  UNL1        0.0172
      9 C         139.5449  140.4427  170.6010 C.3     1  UNL1        0.0686
     10 N         140.6657  140.6322  171.5797 N.3     1  UNL1       -0.2975
     11 C         142.0893  140.5655  171.1119 C.3     1  UNL1        0.0686
     12 C         142.3921  140.3094  169.6653 C.3     1  UNL1        0.0172
     13 C         140.2609  139.9120  167.5976 C.3     1  UNL1        0.0314
     14 H         140.5568  139.9131  172.2949 H       1  UNL1        0.1232
     15 C         139.6289  139.5677  165.7237 C.2     1  UNL1        0.2644
     16 O         138.7351  138.5805  165.9451 O.2     1  UNL1       -0.2713
     17 N         139.1222  140.6158  164.7778 N.am    1  UNL1       -0.1956
     18 O         137.7482  140.4931  164.1886 O.3     1  UNL1       -0.2951
     19 H         139.6913  141.3842  164.5436 H       1  UNL1        0.1823
     20 H         137.3251  139.6856  164.5202 H       1  UNL1        0.2414
     21 C         142.8218  138.7011  160.6815 C.ar    1  UNL1        0.1454
     22 C         142.3526  137.5567  161.5301 C.ar    1  UNL1        0.0388
     23 C         141.8979  137.8040  162.9379 C.ar    1  UNL1        0.0215
     24 C         141.9123  139.1957  163.4972 C.ar    1  UNL1        0.1063
     25 C         142.3814  140.3402  162.6486 C.ar    1  UNL1        0.0215
     26 C         142.8362  140.0929  161.2408 C.ar    1  UNL1        0.0388
     27 O         143.2765  138.4538  159.2737 O.3     1  UNL1       -0.4535
     28 C         140.2622  137.5095  156.0685 C.ar    1  UNL1        0.0536
     29 C         141.6024  136.8358  156.0596 C.ar    1  UNL1        0.0076
     30 C         142.6071  137.1506  157.1280 C.ar    1  UNL1        0.0376
     31 C         142.2717  138.1391  158.2053 C.ar    1  UNL1        0.1453
     32 C         140.9315  138.8128  158.2141 C.ar    1  UNL1        0.0376
     33 C         139.9268  138.4980  157.1457 C.ar    1  UNL1        0.0076
     34 C         138.7138  136.5351  152.5467 C.3     1  UNL1        0.1109
     35 N         139.7185  136.8498  153.6151 N.am    1  UNL1       -0.2992
     36 C         139.2575  137.1948  155.0002 C.2     1  UNL1        0.2459
     37 O         137.7915  137.2251  155.3168 O.2     1  UNL1       -0.2701
     38 H         140.6806  136.8299  153.4073 H       1  UNL1        0.1498
@<TRIPOS>BOND
     1    34    35    1
     2    35    36   am
     3    36    37    2
     4    36    28    1
     5    28    29   ar
     6    29    30   ar
     7    30    31   ar
     8    31    27    1
     9    27    21    1
    10    21    22   ar
    11    22    23   ar
    12    23    24   ar
    13    24     1    1
    14     1     2    2
    15     1     3    2
    16     1     4    1
    17     4    15    1
    18    15    16    2
    19    15    17   am
    20    17    18    1
    21     4     5    1
    22     5     6    1
    23     6     7    1
    24     7     8    1
    25     8     9    1
    26     9    10    1
    27    10    11    1
    28    11    12    1
    29     7    13    1
    30    24    25   ar
    31    25    26   ar
    32    31    32   ar
    33    32    33   ar
    34    33    28   ar
    35    26    21   ar
    36    13     4    1
    37    12     7    1
    38    35    38    1
    39    17    19    1
    40    18    20    1
    41    10    14    1
@<TRIPOS>MOLECULE
*****
 38 41 0 0 0
SMALL
GASTEIGER

@<TRIPOS>ATOM
      1 S         142.9921  140.4177  164.9357 S.O2    1  UNL1        0.0134
      2 O         144.3363  140.5103  164.8528 O.2     1  UNL1       -0.1683
      3 O         141.5048  140.2362  164.8626 O.2     1  UNL1       -0.1683
      4 C         142.8482  141.0515  166.2876 C.3     1  UNL1        0.1845
      5 C         142.7427  139.6340  166.7670 C.3     1  UNL1        0.0313
      6 C         142.5620  139.6605  168.2558 C.3     1  UNL1        0.0024
      7 C         142.5558  141.0943  168.6967 C.3     1  UNL1        0.0048
      8 C         142.5694  142.5660  168.9864 C.3     1  UNL1        0.0172
      9 C         142.4137  143.0543  170.3960 C.3     1  UNL1        0.0686
     10 N         142.2444  142.0709  171.5160 N.3     1  UNL1       -0.2975
     11 C         142.2309  140.5993  171.2263 C.3     1  UNL1        0.0686
     12 C         142.3866  140.1109  169.8167 C.3     1  UNL1        0.0172
     13 C         142.7327  141.9540  167.4802 C.3     1  UNL1        0.0314
     14 H         141.3570  142.2901  171.9687 H       1  UNL1        0.1232
     15 C         142.9838  142.3364  165.5257 C.2     1  UNL1        0.2644
     16 O         142.0895  142.8697  164.6665 O.2     1  UNL1       -0.2713
     17 N         144.2175  143.1750  165.6827 N.am    1  UNL1       -0.1956
     18 O         144.3530  144.4599  164.9208 O.3     1  UNL1       -0.2951
     19 H         144.9384  142.8820  166.2859 H       1  UNL1        0.1823
     20 H         143.5613  144.5989  164.3778 H       1  UNL1        0.2414
     21 C         143.4236  138.5162  160.8801 C.ar    1  UNL1        0.1454
     22 C         142.5543  137.8747  161.9206 C.ar    1  UNL1        0.0388
     23 C         142.4105  138.5085  163.2725 C.ar    1  UNL1        0.0215
     24 C         143.1359  139.7839  163.5839 C.ar    1  UNL1        0.1063
     25 C         144.0052  140.4255  162.5434 C.ar    1  UNL1        0.0215
     26 C         144.1490  139.7917  161.1915 C.ar    1  UNL1        0.0388
     27 O         143.5674  137.8824  159.5283 O.3     1  UNL1       -0.4535
     28 C         140.2027  138.1433  156.5515 C.ar    1  UNL1        0.0536
     29 C         140.2680  139.1104  157.6961 C.ar    1  UNL1        0.0076
     30 C         141.3896  139.0235  158.6884 C.ar    1  UNL1        0.0376
     31 C         142.4458  137.9693  158.5359 C.ar    1  UNL1        0.1453
     32 C         142.3805  137.0022  157.3913 C.ar    1  UNL1        0.0376
     33 C         141.2589  137.0891  156.3990 C.ar    1  UNL1        0.0076
     34 C         137.8437  139.5131  153.6690 C.3     1  UNL1        0.1109
     35 N         138.9652  139.4261  154.6613 N.am    1  UNL1       -0.2992
     36 C         139.0812  138.2302  155.5592 C.2     1  UNL1        0.2459
     37 O         138.0756  137.1211  155.4648 O.2     1  UNL1       -0.2701
     38 H         139.6252  140.1540  154.7232 H       1  UNL1        0.1498
@<TRIPOS>BOND
     1    34    35    1
     2    35    36   am
     3    36    37    2
     4    36    28    1
     5    28    29   ar
     6    29    30   ar
     7    30    31   ar
     8    31    27    1
     9    27    21    1
    10    21    22   ar
    11    22    23   ar
    12    23    24   ar
    13    24     1    1
    14     1     2    2
    15     1     3    2
    16     1     4    1
    17     4    15    1
    18    15    16    2
    19    15    17   am
    20    17    18    1
    21     4     5    1
    22     5     6    1
    23     6     7    1
    24     7     8    1
    25     8     9    1
    26     9    10    1
    27    10    11    1
    28    11    12    1
    29     7    13    1
    30    24    25   ar
    31    25    26   ar
    32    31    32   ar
    33    32    33   ar
    34    33    28   ar
    35    26    21   ar
    36    13     4    1
    37    12     7    1
    38    35    38    1
    39    17    19    1
    40    18    20    1
    41    10    14    1
@<TRIPOS>MOLECULE
*****
 38 41 0 0 0
SMALL
GASTEIGER

@<TRIPOS>ATOM
      1 S         141.1728  138.8879  163.2882 S.O2    1  UNL1        0.0134
      2 O         141.1174  140.1472  162.8048 O.2     1  UNL1       -0.1683
      3 O         141.2910  137.4391  163.6585 O.2     1  UNL1       -0.1683
      4 C         140.7166  139.2067  164.6812 C.3     1  UNL1        0.1845
      5 C         142.1768  139.1137  165.0119 C.3     1  UNL1        0.0313
      6 C         142.3376  139.3805  166.4792 C.3     1  UNL1        0.0024
      7 C         140.9769  139.6384  167.0554 C.3     1  UNL1        0.0048
      8 C         139.5597  139.8743  167.4867 C.3     1  UNL1        0.0172
      9 C         139.2545  140.1850  168.9220 C.3     1  UNL1        0.0686
     10 N         140.3663  140.2598  169.9260 N.3     1  UNL1       -0.2975
     11 C         141.7835  140.0240  169.4948 C.3     1  UNL1        0.0686
     12 C         142.0887  139.7133  168.0594 C.3     1  UNL1        0.0172
     13 C         139.9750  139.5310  165.9442 C.3     1  UNL1        0.0314
     14 H         140.1591  139.5687  170.6470 H       1  UNL1        0.1232
     15 C         139.3519  139.2330  164.0594 C.2     1  UNL1        0.2644
     16 O         138.6734  138.1857  163.5443 O.2     1  UNL1       -0.2713
     17 N         138.5962  140.5252  163.9632 N.am    1  UNL1       -0.1956
     18 O         137.2314  140.5514  163.3414 O.3     1  UNL1       -0.2951
     19 H         138.9960  141.3561  164.3082 H       1  UNL1        0.1823
     20 H         136.9888  139.6566  163.0562 H       1  UNL1        0.2414
     21 C         142.5415  137.9317  159.1095 C.ar    1  UNL1        0.1454
     22 C         143.4329  137.6313  160.2779 C.ar    1  UNL1        0.0388
     23 C         142.9767  137.9501  161.6708 C.ar    1  UNL1        0.0215
     24 C         141.6291  138.5692  161.8953 C.ar    1  UNL1        0.1063
     25 C         140.7376  138.8697  160.7270 C.ar    1  UNL1        0.0215
     26 C         141.1939  138.5509  159.3341 C.ar    1  UNL1        0.0388
     27 O         142.9978  137.6130  157.7166 O.3     1  UNL1       -0.4535
     28 C         142.2454  133.5296  155.9816 C.ar    1  UNL1        0.0536
     29 C         143.2128  133.6959  157.1158 C.ar    1  UNL1        0.0076
     30 C         143.4635  135.0570  157.6942 C.ar    1  UNL1        0.0376
     31 C         142.7470  136.2518  157.1382 C.ar    1  UNL1        0.1453
     32 C         141.7796  136.0855  156.0040 C.ar    1  UNL1        0.0376
     33 C         141.5289  134.7244  155.4256 C.ar    1  UNL1        0.0076
     34 C         140.3545  130.4066  154.4255 C.3     1  UNL1        0.1109
     35 N         140.6054  131.7676  155.0039 N.am    1  UNL1       -0.2992
     36 C         141.9946  132.1686  155.4032 C.2     1  UNL1        0.2459
     37 O         143.1330  131.2082  155.2241 O.2     1  UNL1       -0.2701
     38 H         139.8583  132.3979  155.1214 H       1  UNL1        0.1498
@<TRIPOS>BOND
     1    34    35    1
     2    35    36   am
     3    36    37    2
     4    36    28    1
     5    28    29   ar
     6    29    30   ar
     7    30    31   ar
     8    31    27    1
     9    27    21    1
    10    21    22   ar
    11    22    23   ar
    12    23    24   ar
    13    24     1    1
    14     1     2    2
    15     1     3    2
    16     1     4    1
    17     4    15    1
    18    15    16    2
    19    15    17   am
    20    17    18    1
    21     4     5    1
    22     5     6    1
    23     6     7    1
    24     7     8    1
    25     8     9    1
    26     9    10    1
    27    10    11    1
    28    11    12    1
    29     7    13    1
    30    24    25   ar
    31    25    26   ar
    32    31    32   ar
    33    32    33   ar
    34    33    28   ar
    35    26    21   ar
    36    13     4    1
    37    12     7    1
    38    35    38    1
    39    17    19    1
    40    18    20    1
    41    10    14    1
@<TRIPOS>MOLECULE
*****
 38 41 0 0 0
SMALL
GASTEIGER

@<TRIPOS>ATOM
      1 S         142.3047  142.4879  164.2307 S.O2    1  UNL1        0.0134
      2 O         142.6324  143.7802  164.0186 O.2     1  UNL1       -0.1683
      3 O         141.9047  141.0432  164.2870 O.2     1  UNL1       -0.1683
      4 C         142.5740  142.4708  165.7062 C.3     1  UNL1        0.1845
      5 C         141.0837  142.3403  165.8173 C.3     1  UNL1        0.0313
      6 C         140.7318  142.2706  167.2738 C.3     1  UNL1        0.0024
      7 C         142.0045  142.3580  168.0629 C.3     1  UNL1        0.0048
      8 C         143.3521  142.4555  168.7144 C.3     1  UNL1        0.0172
      9 C         143.4663  142.4247  170.2097 C.3     1  UNL1        0.0686
     10 N         142.2328  142.2962  171.0535 N.3     1  UNL1       -0.2975
     11 C         140.8852  142.1986  170.4021 C.3     1  UNL1        0.0686
     12 C         140.7711  142.2295  168.9068 C.3     1  UNL1        0.0172
     13 C         143.1430  142.4817  167.0941 C.3     1  UNL1        0.0314
     14 H         142.2067  143.1136  171.6631 H       1  UNL1        0.1232
     15 C         144.0078  142.6048  165.2868 C.2     1  UNL1        0.2644
     16 O         144.8414  143.6312  165.5593 O.2     1  UNL1       -0.2713
     17 N         144.6562  141.5229  164.4751 N.am    1  UNL1       -0.1956
     18 O         146.0902  141.6570  164.0557 O.3     1  UNL1       -0.2951
     19 H         144.1407  140.7246  164.2176 H       1  UNL1        0.1823
     20 H         146.4475  142.4949  164.3891 H       1  UNL1        0.2414
     21 C         141.4968  142.5391  159.8042 C.ar    1  UNL1        0.1454
     22 C         142.7115  143.2270  160.3529 C.ar    1  UNL1        0.0388
     23 C         142.9808  143.2100  161.8284 C.ar    1  UNL1        0.0215
     24 C         142.0354  142.5049  162.7552 C.ar    1  UNL1        0.1063
     25 C         140.8207  141.8169  162.2065 C.ar    1  UNL1        0.0215
     26 C         140.5514  141.8340  160.7310 C.ar    1  UNL1        0.0388
     27 O         141.2276  142.5562  158.3287 O.3     1  UNL1       -0.4535
     28 C         139.9098  146.3645  156.3259 C.ar    1  UNL1        0.0536
     29 C         139.9237  146.2703  157.8229 C.ar    1  UNL1        0.0076
     30 C         140.3630  145.0009  158.4904 C.ar    1  UNL1        0.0376
     31 C         140.7883  143.8257  157.6610 C.ar    1  UNL1        0.1453
     32 C         140.7744  143.9198  156.1641 C.ar    1  UNL1        0.0376
     33 C         140.3351  145.1892  155.4965 C.ar    1  UNL1        0.0076
     34 C         138.3557  149.9768  155.7914 C.3     1  UNL1        0.1109
     35 N         138.7950  148.7074  156.4590 N.am    1  UNL1       -0.2992
     36 C         139.4706  147.6338  155.6583 C.2     1  UNL1        0.2459
     37 O         139.7069  147.8297  154.1900 O.2     1  UNL1       -0.2701
     38 H         138.6399  148.5789  157.4226 H       1  UNL1        0.1498
@<TRIPOS>BOND
     1    34    35    1
     2    35    36   am
     3    36    37    2
     4    36    28    1
     5    28    29   ar
     6    29    30   ar
     7    30    31   ar
     8    31    27    1
     9    27    21    1
    10    21    22   ar
    11    22    23   ar
    12    23    24   ar
    13    24     1    1
    14     1     2    2
    15     1     3    2
    16     1     4    1
    17     4    15    1
    18    15    16    2
    19    15    17   am
    20    17    18    1
    21     4     5    1
    22     5     6    1
    23     6     7    1
    24     7     8    1
    25     8     9    1
    26     9    10    1
    27    10    11    1
    28    11    12    1
    29     7    13    1
    30    24    25   ar
    31    25    26   ar
    32    31    32   ar
    33    32    33   ar
    34    33    28   ar
    35    26    21   ar
    36    13     4    1
    37    12     7    1
    38    35    38    1
    39    17    19    1
    40    18    20    1
    41    10    14    1
@<TRIPOS>MOLECULE
*****
 38 41 0 0 0
SMALL
GASTEIGER

@<TRIPOS>ATOM
      1 S         139.6831  141.7651  165.0590 S.O2    1  UNL1        0.0134
      2 O         138.3350  141.8028  164.9986 O.2     1  UNL1       -0.1683
      3 O         141.1794  141.7822  164.9528 O.2     1  UNL1       -0.1683
      4 C         139.7892  141.2813  166.4749 C.3     1  UNL1        0.1845
      5 C         140.3067  142.6637  166.7423 C.3     1  UNL1        0.0313
      6 C         140.6197  142.7663  168.2057 C.3     1  UNL1        0.0024
      7 C         140.2958  141.4474  168.8427 C.3     1  UNL1        0.0048
      8 C         139.9282  140.0798  169.3370 C.3     1  UNL1        0.0172
      9 C         140.0893  139.7386  170.7887 C.3     1  UNL1        0.0686
     10 N         140.6179  140.7652  171.7462 N.3     1  UNL1       -0.2975
     11 C         140.9855  142.1328  171.2520 C.3     1  UNL1        0.0686
     12 C         140.8244  142.4740  169.8002 C.3     1  UNL1        0.0172
     13 C         139.7825  140.5297  167.7730 C.3     1  UNL1        0.0314
     14 H         141.4577  140.3691  172.1685 H       1  UNL1        0.1232
     15 C         139.2497  140.0002  165.9115 C.2     1  UNL1        0.2644
     16 O         138.0528  139.4356  166.1786 O.2     1  UNL1       -0.2713
     17 N         140.0697  139.2036  164.9405 N.am    1  UNL1       -0.1956
     18 O         139.5300  137.9224  164.3772 O.3     1  UNL1       -0.2951
     19 H         140.9621  139.5216  164.6728 H       1  UNL1        0.1823
     20 H         138.6464  137.7560  164.7411 H       1  UNL1        0.2414
     21 C         139.3649  143.2164  160.8114 C.ar    1  UNL1        0.1454
     22 C         138.1890  143.3357  161.7349 C.ar    1  UNL1        0.0388
     23 C         138.2950  142.8519  163.1507 C.ar    1  UNL1        0.0215
     24 C         139.5771  142.2489  163.6431 C.ar    1  UNL1        0.1063
     25 C         140.7531  142.1295  162.7197 C.ar    1  UNL1        0.0215
     26 C         140.6470  142.6133  161.3039 C.ar    1  UNL1        0.0388
     27 O         139.2588  143.7002  159.3956 O.3     1  UNL1       -0.4535
     28 C         137.5647  141.0025  156.2171 C.ar    1  UNL1        0.0536
     29 C         137.6203  140.5390  157.6426 C.ar    1  UNL1        0.0076
     30 C         138.1850  141.4383  158.7020 C.ar    1  UNL1        0.0376
     31 C         138.6941  142.8010  158.3360 C.ar    1  UNL1        0.1453
     32 C         138.6384  143.2644  156.9105 C.ar    1  UNL1        0.0376
     33 C         138.0737  142.3652  155.8510 C.ar    1  UNL1        0.0076
     34 C         136.8991  137.7812  153.9966 C.3     1  UNL1        0.1109
     35 N         137.4638  138.6804  155.0561 N.am    1  UNL1       -0.2992
     36 C         137.0000  140.1034  155.1576 C.2     1  UNL1        0.2459
     37 O         135.9715  140.6270  154.1994 O.2     1  UNL1       -0.2701
     38 H         138.1388  138.3367  155.6850 H       1  UNL1        0.1498
@<TRIPOS>BOND
     1    34    35    1
     2    35    36   am
     3    36    37    2
     4    36    28    1
     5    28    29   ar
     6    29    30   ar
     7    30    31   ar
     8    31    27    1
     9    27    21    1
    10    21    22   ar
    11    22    23   ar
    12    23    24   ar
    13    24     1    1
    14     1     2    2
    15     1     3    2
    16     1     4    1
    17     4    15    1
    18    15    16    2
    19    15    17   am
    20    17    18    1
    21     4     5    1
    22     5     6    1
    23     6     7    1
    24     7     8    1
    25     8     9    1
    26     9    10    1
    27    10    11    1
    28    11    12    1
    29     7    13    1
    30    24    25   ar
    31    25    26   ar
    32    31    32   ar
    33    32    33   ar
    34    33    28   ar
    35    26    21   ar
    36    13     4    1
    37    12     7    1
    38    35    38    1
    39    17    19    1
    40    18    20    1
    41    10    14    1
@<TRIPOS>MOLECULE
*****
 38 41 0 0 0
SMALL
GASTEIGER

@<TRIPOS>ATOM
      1 S         140.9736  139.3055  164.6771 S.O2    1  UNL1        0.0134
      2 O         140.4459  138.0629  164.6782 O.2     1  UNL1       -0.1683
      3 O         141.5920  140.6603  164.4976 O.2     1  UNL1       -0.1683
      4 C         140.7476  139.6013  166.1302 C.3     1  UNL1        0.1845
      5 C         142.2326  139.4176  166.2367 C.3     1  UNL1        0.0313
      6 C         142.6238  139.6253  167.6698 C.3     1  UNL1        0.0024
      7 C         141.3806  139.9375  168.4491 C.3     1  UNL1        0.0048
      8 C         140.0591  140.2357  169.0930 C.3     1  UNL1        0.0172
      9 C         139.9880  140.5138  170.5653 C.3     1  UNL1        0.0686
     10 N         141.2384  140.4937  171.3936 N.3     1  UNL1       -0.2975
     11 C         142.5599  140.1955  170.7497 C.3     1  UNL1        0.0686
     12 C         142.6310  139.9174  169.2774 C.3     1  UNL1        0.0172
     13 C         140.2211  139.9226  167.4976 C.3     1  UNL1        0.0314
     14 H         141.0994  139.7909  172.1196 H       1  UNL1        0.1232
     15 C         139.3100  139.7233  165.7201 C.2     1  UNL1        0.2644
     16 O         138.3200  138.8360  165.9553 O.2     1  UNL1       -0.2713
     17 N         138.8456  140.9327  164.9641 N.am    1  UNL1       -0.1956
     18 O         137.4079  141.0545  164.5540 O.3     1  UNL1       -0.2951
     19 H         139.4844  141.6465  164.7370 H       1  UNL1        0.1823
     20 H         136.9188  140.2722  164.8535 H       1  UNL1        0.2414
     21 C         141.6514  138.4181  160.3180 C.ar    1  UNL1        0.1454
     22 C         140.5176  139.3071  160.7349 C.ar    1  UNL1        0.0388
     23 C         140.2916  139.6030  162.1879 C.ar    1  UNL1        0.0215
     24 C         141.1995  139.0097  163.2241 C.ar    1  UNL1        0.1063
     25 C         142.3334  138.1206  162.8072 C.ar    1  UNL1        0.0215
     26 C         142.5594  137.8248  161.3541 C.ar    1  UNL1        0.0388
     27 O         141.8773  138.1223  158.8649 O.3     1  UNL1       -0.4535
     28 C         144.7750  140.6113  156.4859 C.ar    1  UNL1        0.0536
     29 C         144.1471  139.3967  155.8691 C.ar    1  UNL1        0.0076
     30 C         143.1812  138.5670  156.6621 C.ar    1  UNL1        0.0376
     31 C         142.8433  138.9520  158.0719 C.ar    1  UNL1        0.1453
     32 C         143.4711  140.1666  158.6888 C.ar    1  UNL1        0.0376
     33 C         144.4370  140.9962  157.8958 C.ar    1  UNL1        0.0076
     34 C         148.1791  141.9989  154.9906 C.3     1  UNL1        0.1109
     35 N         147.2132  141.1693  155.7835 N.am    1  UNL1       -0.2992
     36 C         145.7408  141.4409  155.6930 C.2     1  UNL1        0.2459
     37 O         145.2343  142.5423  154.8095 O.2     1  UNL1       -0.2701
     38 H         147.5457  140.4465  156.3634 H       1  UNL1        0.1498
@<TRIPOS>BOND
     1    34    35    1
     2    35    36   am
     3    36    37    2
     4    36    28    1
     5    28    29   ar
     6    29    30   ar
     7    30    31   ar
     8    31    27    1
     9    27    21    1
    10    21    22   ar
    11    22    23   ar
    12    23    24   ar
    13    24     1    1
    14     1     2    2
    15     1     3    2
    16     1     4    1
    17     4    15    1
    18    15    16    2
    19    15    17   am
    20    17    18    1
    21     4     5    1
    22     5     6    1
    23     6     7    1
    24     7     8    1
    25     8     9    1
    26     9    10    1
    27    10    11    1
    28    11    12    1
    29     7    13    1
    30    24    25   ar
    31    25    26   ar
    32    31    32   ar
    33    32    33   ar
    34    33    28   ar
    35    26    21   ar
    36    13     4    1
    37    12     7    1
    38    35    38    1
    39    17    19    1
    40    18    20    1
    41    10    14    1
@<TRIPOS>MOLECULE
*****
 38 41 0 0 0
SMALL
GASTEIGER

@<TRIPOS>ATOM
      1 S         139.2827  140.5620  164.9383 S.O2    1  UNL1        0.0134
      2 O         137.9372  140.6642  164.9805 O.2     1  UNL1       -0.1683
      3 O         140.7614  140.4571  164.7092 O.2     1  UNL1       -0.1683
      4 C         139.5067  140.4853  166.4195 C.3     1  UNL1        0.1845
      5 C         140.0326  141.8803  166.2534 C.3     1  UNL1        0.0313
      6 C         140.4619  142.3775  167.6019 C.3     1  UNL1        0.0024
      7 C         140.2014  141.2897  168.6015 C.3     1  UNL1        0.0048
      8 C         139.8863  140.1164  169.4813 C.3     1  UNL1        0.0172
      9 C         140.1669  140.1859  170.9531 C.3     1  UNL1        0.0686
     10 N         140.7625  141.4287  171.5452 N.3     1  UNL1       -0.2975
     11 C         141.0777  142.6020  170.6655 C.3     1  UNL1        0.0686
     12 C         140.7971  142.5325  169.1936 C.3     1  UNL1        0.0172
     13 C         139.6111  140.1203  167.8707 C.3     1  UNL1        0.0314
     14 H         141.6370  141.1522  171.9917 H       1  UNL1        0.1232
     15 C         138.9341  139.1064  166.2760 C.2     1  UNL1        0.2644
     16 O         139.4280  138.0951  165.5304 O.2     1  UNL1       -0.2713
     17 N         137.6790  138.7355  167.0088 N.am    1  UNL1       -0.1956
     18 O         137.1064  137.3565  166.8652 O.3     1  UNL1       -0.2951
     19 H         137.2310  139.3971  167.5840 H       1  UNL1        0.1823
     20 H         137.6650  136.8350  166.2678 H       1  UNL1        0.2414
     21 C         138.6105  140.7922  160.4948 C.ar    1  UNL1        0.1454
     22 C         139.7455  141.5463  161.1217 C.ar    1  UNL1        0.0388
     23 C         139.9696  141.4695  162.6028 C.ar    1  UNL1        0.0215
     24 C         139.0586  140.6388  163.4571 C.ar    1  UNL1        0.1063
     25 C         137.9236  139.8846  162.8303 C.ar    1  UNL1        0.0215
     26 C         137.6995  139.9614  161.3491 C.ar    1  UNL1        0.0388
     27 O         138.3865  140.8689  159.0136 O.3     1  UNL1       -0.4535
     28 C         140.4206  137.9340  156.2751 C.ar    1  UNL1        0.0536
     29 C         139.3568  138.8461  155.7399 C.ar    1  UNL1        0.0076
     30 C         138.6788  139.8244  156.6527 C.ar    1  UNL1        0.0376
     31 C         139.0645  139.8906  158.1008 C.ar    1  UNL1        0.1453
     32 C         140.1283  138.9785  158.6360 C.ar    1  UNL1        0.0376
     33 C         140.8063  138.0002  157.7232 C.ar    1  UNL1        0.0076
     34 C         141.3422  134.5418  154.4331 C.3     1  UNL1        0.1109
     35 N         140.6642  135.5201  155.3458 N.am    1  UNL1       -0.2992
     36 C         141.0986  136.9558  155.3624 C.2     1  UNL1        0.2459
     37 O         142.2111  137.4130  154.4661 O.2     1  UNL1       -0.2701
     38 H         139.9341  135.2200  155.9341 H       1  UNL1        0.1498
@<TRIPOS>BOND
     1    34    35    1
     2    35    36   am
     3    36    37    2
     4    36    28    1
     5    28    29   ar
     6    29    30   ar
     7    30    31   ar
     8    31    27    1
     9    27    21    1
    10    21    22   ar
    11    22    23   ar
    12    23    24   ar
    13    24     1    1
    14     1     2    2
    15     1     3    2
    16     1     4    1
    17     4    15    1
    18    15    16    2
    19    15    17   am
    20    17    18    1
    21     4     5    1
    22     5     6    1
    23     6     7    1
    24     7     8    1
    25     8     9    1
    26     9    10    1
    27    10    11    1
    28    11    12    1
    29     7    13    1
    30    24    25   ar
    31    25    26   ar
    32    31    32   ar
    33    32    33   ar
    34    33    28   ar
    35    26    21   ar
    36    13     4    1
    37    12     7    1
    38    35    38    1
    39    17    19    1
    40    18    20    1
    41    10    14    1
