@<TRIPOS>MOLECULE
*****
 29 31 0 0 0
SMALL
GASTEIGER

@<TRIPOS>ATOM
      1 N         139.6373  143.0257  163.6206 N.pl3   1  UNL1       -0.2784
      2 C         140.7222  142.7859  164.6283 C.3     1  UNL1        0.0950
      3 C         140.5413  141.7429  165.6910 C.3     1  UNL1        0.0375
      4 C         139.2757  140.9397  165.7460 C.3     1  UNL1        0.0613
      5 C         138.1908  141.1796  164.7383 C.3     1  UNL1        0.0375
      6 C         138.3716  142.2226  163.6756 C.3     1  UNL1        0.0950
      7 N         141.5849  145.7517  159.5392 N.pl3   1  UNL1       -0.3277
      8 C         140.7132  145.3217  160.6818 C.ar    1  UNL1        0.2131
      9 N         139.4791  146.0258  161.1629 N.ar    1  UNL1       -0.1121
     10 N         138.9259  145.2514  162.3222 N.ar    1  UNL1       -0.1117
     11 C         139.8181  144.0687  162.5577 C.ar    1  UNL1        0.2194
     12 N         140.9227  144.1122  161.5439 N.ar    1  UNL1       -0.2979
     13 H         141.3638  146.5651  159.0304 H       1  UNL1        0.1451
     14 H         142.3780  145.2206  159.2982 H       1  UNL1        0.1451
     15 H         141.6564  143.4612  161.4592 H       1  UNL1        0.1713
     16 N         139.0949  139.8967  166.8088 N.3     1  UNL1       -0.2689
     17 C         138.0700  138.8158  166.6323 C.3     1  UNL1        0.0771
     18 C         138.4202  137.5658  165.8806 C.3     1  UNL1        0.0437
     19 C         139.3042  137.6407  164.6711 C.ar    1  UNL1       -0.0207
     20 C         140.7933  137.5448  164.8235 C.ar    1  UNL1       -0.0034
     21 C         141.6774  137.6197  163.6140 C.ar    1  UNL1        0.0111
     22 C         141.0723  137.7905  162.2521 C.ar    1  UNL1        0.0577
     23 CL        141.9563  137.8654  161.0427 Cl      1  UNL1       -0.0822
     24 C         139.5831  137.8864  162.0998 C.ar    1  UNL1        0.0111
     25 C         138.6991  137.8115  163.3093 C.ar    1  UNL1       -0.0034
     26 C         139.9390  139.9347  168.0482 C.3     1  UNL1        0.1145
     27 C         139.4570  140.6729  169.2617 C.2     1  UNL1        0.0665
     28 O         139.8514  142.1044  169.4746 O.co2   1  UNL1       -0.5477
     29 O         138.5805  139.9796  170.2623 O.co2   1  UNL1       -0.5477
@<TRIPOS>UNITY_ATOM_ATTR
28 1
charge -1
@<TRIPOS>BOND
     1     7     8    1
     2     8     9   ar
     3     9    10   ar
     4    10    11   ar
     5    11     1    1
     6     1     2    1
     7     2     3    1
     8     3     4    1
     9     4    16    1
    10    16    17    1
    11    17    18    1
    12    18    19    1
    13    19    20   ar
    14    20    21   ar
    15    21    22   ar
    16    22    23    1
    17    22    24   ar
    18    24    25   ar
    19    16    26    1
    20    26    27    1
    21    27    28   ar
    22    27    29   ar
    23     4     5    1
    24     5     6    1
    25    11    12   ar
    26    12     8   ar
    27     6     1    1
    28    25    19   ar
    29     7    13    1
    30     7    14    1
    31    12    15    1
@<TRIPOS>MOLECULE
*****
 29 31 0 0 0
SMALL
GASTEIGER

@<TRIPOS>ATOM
      1 N         140.5558  143.8236  163.7429 N.pl3   1  UNL1       -0.2784
      2 C         139.6495  144.2433  164.8621 C.3     1  UNL1        0.0950
      3 C         139.7231  143.5462  166.1882 C.3     1  UNL1        0.0375
      4 C         140.7028  142.4294  166.3952 C.3     1  UNL1        0.0613
      5 C         141.6091  142.0097  165.2760 C.3     1  UNL1        0.0375
      6 C         141.5355  142.7068  163.9499 C.3     1  UNL1        0.0950
      7 N         141.8448  145.7076  158.9816 N.pl3   1  UNL1       -0.3277
      8 C         141.0748  145.3867  160.2282 C.ar    1  UNL1        0.2131
      9 N         139.6634  145.8000  160.5237 N.ar    1  UNL1       -0.1121
     10 N         139.2972  145.2648  161.8763 N.ar    1  UNL1       -0.1117
     11 C         140.4822  144.5207  162.4167 C.ar    1  UNL1        0.2194
     12 N         141.5808  144.5960  161.3982 N.ar    1  UNL1       -0.2979
     13 H         141.4240  146.2359  158.2654 H       1  UNL1        0.1451
     14 H         142.7711  145.3900  158.8797 H       1  UNL1        0.1451
     15 H         142.4767  144.1966  161.4827 H       1  UNL1        0.1713
     16 N         140.7764  141.7324  167.7214 N.3     1  UNL1       -0.2689
     17 C         140.3948  140.2859  167.8305 C.3     1  UNL1        0.0771
     18 C         139.0563  139.8238  167.3353 C.3     1  UNL1        0.0437
     19 C         138.8772  139.4537  165.8928 C.ar    1  UNL1       -0.0207
     20 C         138.1875  140.4004  164.9557 C.ar    1  UNL1       -0.0034
     21 C         138.0084  140.0303  163.5132 C.ar    1  UNL1        0.0111
     22 C         138.5190  138.7135  163.0077 C.ar    1  UNL1        0.0577
     23 CL        138.3399  138.3434  161.5652 Cl      1  UNL1       -0.0822
     24 C         139.2087  137.7668  163.9449 C.ar    1  UNL1        0.0111
     25 C         139.3878  138.1370  165.3874 C.ar    1  UNL1       -0.0034
     26 C         141.2315  142.4819  168.9384 C.3     1  UNL1        0.1145
     27 C         140.2213  143.0543  169.8880 C.2     1  UNL1        0.0665
     28 O         140.1688  144.5347  170.1244 O.co2   1  UNL1       -0.5477
     29 O         139.2637  142.1465  170.6013 O.co2   1  UNL1       -0.5477
@<TRIPOS>UNITY_ATOM_ATTR
28 1
charge -1
@<TRIPOS>BOND
     1     7     8    1
     2     8     9   ar
     3     9    10   ar
     4    10    11   ar
     5    11     1    1
     6     1     2    1
     7     2     3    1
     8     3     4    1
     9     4    16    1
    10    16    17    1
    11    17    18    1
    12    18    19    1
    13    19    20   ar
    14    20    21   ar
    15    21    22   ar
    16    22    23    1
    17    22    24   ar
    18    24    25   ar
    19    16    26    1
    20    26    27    1
    21    27    28   ar
    22    27    29   ar
    23     4     5    1
    24     5     6    1
    25    11    12   ar
    26    12     8   ar
    27     6     1    1
    28    25    19   ar
    29     7    13    1
    30     7    14    1
    31    12    15    1
@<TRIPOS>MOLECULE
*****
 29 31 0 0 0
SMALL
GASTEIGER

@<TRIPOS>ATOM
      1 N         140.5194  140.9611  167.8843 N.pl3   1  UNL1       -0.2784
      2 C         141.0910  141.3282  166.5470 C.3     1  UNL1        0.0950
      3 C         140.5300  140.7157  165.2980 C.3     1  UNL1        0.0375
      4 C         139.3975  139.7361  165.3863 C.3     1  UNL1        0.0613
      5 C         138.8259  139.3690  166.7237 C.3     1  UNL1        0.0375
      6 C         139.3869  139.9815  167.9727 C.3     1  UNL1        0.0950
      7 N         143.4164  143.9140  171.1661 N.pl3   1  UNL1       -0.3277
      8 C         142.4120  142.9309  170.6419 C.ar    1  UNL1        0.2131
      9 N         141.4752  142.1015  171.4693 N.ar    1  UNL1       -0.1121
     10 N         140.6523  141.2627  170.5370 N.ar    1  UNL1       -0.1117
     11 C         141.0804  141.5737  169.1335 C.ar    1  UNL1        0.2194
     12 N         142.1679  142.6047  169.1983 N.ar    1  UNL1       -0.2979
     13 H         143.5026  144.0598  172.1359 H       1  UNL1        0.1451
     14 H         143.9893  144.4134  170.5403 H       1  UNL1        0.1451
     15 H         142.6389  142.9982  168.4285 H       1  UNL1        0.1713
     16 N         138.8365  139.1236  164.1372 N.3     1  UNL1       -0.2689
     17 C         137.9290  139.9245  163.2513 C.3     1  UNL1        0.0771
     18 C         137.3883  141.2410  163.7255 C.3     1  UNL1        0.0437
     19 C         138.0495  142.5193  163.3029 C.ar    1  UNL1       -0.0207
     20 C         138.5264  142.6858  161.8905 C.ar    1  UNL1       -0.0034
     21 C         139.1876  143.9641  161.4679 C.ar    1  UNL1        0.0111
     22 C         139.3719  145.0761  162.4577 C.ar    1  UNL1        0.0577
     23 CL        140.0331  146.3544  162.0351 Cl      1  UNL1       -0.0822
     24 C         138.8950  144.9096  163.8701 C.ar    1  UNL1        0.0111
     25 C         138.2338  143.6312  164.2927 C.ar    1  UNL1       -0.0034
     26 C         139.1831  137.7101  163.7741 C.3     1  UNL1        0.1145
     27 C         140.6112  137.3306  163.5163 C.2     1  UNL1        0.0665
     28 O         141.5248  137.0231  164.6656 O.co2   1  UNL1       -0.5477
     29 O         141.1258  137.2585  162.1091 O.co2   1  UNL1       -0.5477
@<TRIPOS>UNITY_ATOM_ATTR
28 1
charge -1
@<TRIPOS>BOND
     1     7     8    1
     2     8     9   ar
     3     9    10   ar
     4    10    11   ar
     5    11     1    1
     6     1     2    1
     7     2     3    1
     8     3     4    1
     9     4    16    1
    10    16    17    1
    11    17    18    1
    12    18    19    1
    13    19    20   ar
    14    20    21   ar
    15    21    22   ar
    16    22    23    1
    17    22    24   ar
    18    24    25   ar
    19    16    26    1
    20    26    27    1
    21    27    28   ar
    22    27    29   ar
    23     4     5    1
    24     5     6    1
    25    11    12   ar
    26    12     8   ar
    27     6     1    1
    28    25    19   ar
    29     7    13    1
    30     7    14    1
    31    12    15    1
@<TRIPOS>MOLECULE
*****
 29 31 0 0 0
SMALL
GASTEIGER

@<TRIPOS>ATOM
      1 N         140.5154  143.8840  163.5722 N.pl3   1  UNL1       -0.2784
      2 C         141.5008  142.7820  163.8262 C.3     1  UNL1        0.0950
      3 C         141.5373  142.1020  165.1627 C.3     1  UNL1        0.0375
      4 C         140.5885  142.5240  166.2451 C.3     1  UNL1        0.0613
      5 C         139.6031  143.6259  165.9911 C.3     1  UNL1        0.0375
      6 C         139.5666  144.3059  164.6546 C.3     1  UNL1        0.0950
      7 N         141.8705  145.5611  158.7522 N.pl3   1  UNL1       -0.3277
      8 C         141.1017  145.3349  160.0202 C.ar    1  UNL1        0.2131
      9 N         139.7432  145.8862  160.3379 N.ar    1  UNL1       -0.1121
     10 N         139.3583  145.4097  161.7071 N.ar    1  UNL1       -0.1117
     11 C         140.4788  144.5640  162.2356 C.ar    1  UNL1        0.2194
     12 N         141.5562  144.5178  161.1931 N.ar    1  UNL1       -0.2979
     13 H         141.4859  146.1160  158.0357 H       1  UNL1        0.1451
     14 H         142.7597  145.1547  158.6365 H       1  UNL1        0.1451
     15 H         142.4116  144.0358  161.2658 H       1  UNL1        0.1713
     16 N         140.6251  141.8439  167.5817 N.3     1  UNL1       -0.2689
     17 C         140.4507  140.3568  167.6715 C.3     1  UNL1        0.0771
     18 C         139.1551  139.7270  167.2534 C.3     1  UNL1        0.0437
     19 C         138.9214  139.3772  165.8136 C.ar    1  UNL1       -0.0207
     20 C         139.4008  138.0623  165.2738 C.ar    1  UNL1       -0.0034
     21 C         139.1672  137.7126  163.8340 C.ar    1  UNL1        0.0111
     22 C         138.4541  138.6777  162.9339 C.ar    1  UNL1        0.0577
     23 CL        138.2205  138.3280  161.4941 Cl      1  UNL1       -0.0822
     24 C         137.9748  139.9926  163.4736 C.ar    1  UNL1        0.0111
     25 C         138.2084  140.3423  164.9135 C.ar    1  UNL1       -0.0034
     26 C         140.8361  142.6510  168.8283 C.3     1  UNL1        0.1145
     27 C         142.2242  142.8757  169.3503 C.2     1  UNL1        0.0665
     28 O         143.4102  142.5607  168.4874 O.co2   1  UNL1       -0.5477
     29 O         142.4266  143.4153  170.7352 O.co2   1  UNL1       -0.5477
@<TRIPOS>UNITY_ATOM_ATTR
28 1
charge -1
@<TRIPOS>BOND
     1     7     8    1
     2     8     9   ar
     3     9    10   ar
     4    10    11   ar
     5    11     1    1
     6     1     2    1
     7     2     3    1
     8     3     4    1
     9     4    16    1
    10    16    17    1
    11    17    18    1
    12    18    19    1
    13    19    20   ar
    14    20    21   ar
    15    21    22   ar
    16    22    23    1
    17    22    24   ar
    18    24    25   ar
    19    16    26    1
    20    26    27    1
    21    27    28   ar
    22    27    29   ar
    23     4     5    1
    24     5     6    1
    25    11    12   ar
    26    12     8   ar
    27     6     1    1
    28    25    19   ar
    29     7    13    1
    30     7    14    1
    31    12    15    1
@<TRIPOS>MOLECULE
*****
 29 31 0 0 0
SMALL
GASTEIGER

@<TRIPOS>ATOM
      1 N         139.2274  139.7348  166.7220 N.pl3   1  UNL1       -0.2784
      2 C         139.6858  140.7008  165.6701 C.3     1  UNL1        0.0950
      3 C         139.6761  140.2969  164.2256 C.3     1  UNL1        0.0375
      4 C         139.2080  138.9270  163.8330 C.3     1  UNL1        0.0613
      5 C         138.7496  137.9609  164.8849 C.3     1  UNL1        0.0375
      6 C         138.7593  138.3648  166.3294 C.3     1  UNL1        0.0950
      7 N         140.4576  142.1517  171.2526 N.pl3   1  UNL1       -0.3277
      8 C         139.8025  141.2496  170.2491 C.ar    1  UNL1        0.2131
      9 N         138.7013  140.2705  170.5302 N.ar    1  UNL1       -0.1121
     10 N         138.3519  139.5840  169.2431 N.ar    1  UNL1       -0.1117
     11 C         139.2371  140.1386  168.1667 C.ar    1  UNL1        0.2194
     12 N         140.1336  141.1680  168.7884 N.ar    1  UNL1       -0.2979
     13 H         140.1694  142.1325  172.1938 H       1  UNL1        0.1451
     14 H         141.1757  142.7631  170.9701 H       1  UNL1        0.1451
     15 H         140.8190  141.6972  168.3200 H       1  UNL1        0.1713
     16 N         139.1984  138.5231  162.3883 N.3     1  UNL1       -0.2689
     17 C         140.4572  138.0293  161.7392 C.3     1  UNL1        0.0771
     18 C         141.6241  137.6136  162.5852 C.3     1  UNL1        0.0437
     19 C         142.7167  138.5950  162.8901 C.ar    1  UNL1       -0.0207
     20 C         143.3606  139.3698  161.7788 C.ar    1  UNL1       -0.0034
     21 C         144.4533  140.3511  162.0838 C.ar    1  UNL1        0.0111
     22 C         144.9021  140.5577  163.5001 C.ar    1  UNL1        0.0577
     23 CL        145.9947  141.5390  163.8051 Cl      1  UNL1       -0.0822
     24 C         144.2582  139.7829  164.6115 C.ar    1  UNL1        0.0111
     25 C         143.1655  138.8015  164.3064 C.ar    1  UNL1       -0.0034
     26 C         137.9298  138.6130  161.5929 C.3     1  UNL1        0.1145
     27 C         137.5609  139.8977  160.9122 C.2     1  UNL1        0.0665
     28 O         137.3143  141.1337  161.7257 O.co2   1  UNL1       -0.5477
     29 O         137.4385  139.9465  159.4180 O.co2   1  UNL1       -0.5477
@<TRIPOS>UNITY_ATOM_ATTR
28 1
charge -1
@<TRIPOS>BOND
     1     7     8    1
     2     8     9   ar
     3     9    10   ar
     4    10    11   ar
     5    11     1    1
     6     1     2    1
     7     2     3    1
     8     3     4    1
     9     4    16    1
    10    16    17    1
    11    17    18    1
    12    18    19    1
    13    19    20   ar
    14    20    21   ar
    15    21    22   ar
    16    22    23    1
    17    22    24   ar
    18    24    25   ar
    19    16    26    1
    20    26    27    1
    21    27    28   ar
    22    27    29   ar
    23     4     5    1
    24     5     6    1
    25    11    12   ar
    26    12     8   ar
    27     6     1    1
    28    25    19   ar
    29     7    13    1
    30     7    14    1
    31    12    15    1
@<TRIPOS>MOLECULE
*****
 29 31 0 0 0
SMALL
GASTEIGER

@<TRIPOS>ATOM
      1 N         141.5601  143.7047  164.3289 N.pl3   1  UNL1       -0.2784
      2 C         140.5324  143.3572  165.3649 C.3     1  UNL1        0.0950
      3 C         140.9380  142.6170  166.6048 C.3     1  UNL1        0.0375
      4 C         142.3713  142.2243  166.8088 C.3     1  UNL1        0.0613
      5 C         143.3989  142.5718  165.7729 C.3     1  UNL1        0.0375
      6 C         142.9933  143.3120  164.5330 C.3     1  UNL1        0.0950
      7 N         139.0122  146.9261  161.0105 N.pl3   1  UNL1       -0.3277
      8 C         139.9834  145.9257  161.5636 C.ar    1  UNL1        0.2131
      9 N         141.0774  145.2424  160.7979 N.ar    1  UNL1       -0.1121
     10 N         141.8012  144.3273  161.7406 N.ar    1  UNL1       -0.1117
     11 C         141.1545  144.4450  163.0889 C.ar    1  UNL1        0.2194
     12 N         140.0310  145.4328  162.9795 N.ar    1  UNL1       -0.2979
     13 H         139.0611  147.1876  160.0626 H       1  UNL1        0.1451
     14 H         138.3259  147.3213  161.5953 H       1  UNL1        0.1451
     15 H         139.4304  145.7091  163.7089 H       1  UNL1        0.1713
     16 N         142.7769  141.4840  168.0489 N.3     1  UNL1       -0.2689
     17 C         142.5187  140.0107  168.1610 C.3     1  UNL1        0.0771
     18 C         142.8848  139.0968  167.0293 C.3     1  UNL1        0.0437
     19 C         141.8512  138.7096  166.0135 C.ar    1  UNL1       -0.0207
     20 C         140.4273  139.1480  166.1878 C.ar    1  UNL1       -0.0034
     21 C         139.3938  138.7607  165.1721 C.ar    1  UNL1        0.0111
     22 C         139.7840  137.9351  163.9821 C.ar    1  UNL1        0.0577
     23 CL        138.7504  137.5479  162.9663 Cl      1  UNL1       -0.0822
     24 C         141.2079  137.4967  163.8078 C.ar    1  UNL1        0.0111
     25 C         142.2415  137.8839  164.8236 C.ar    1  UNL1       -0.0034
     26 C         143.4406  142.2171  169.1767 C.3     1  UNL1        0.1145
     27 C         142.6107  142.9767  170.1688 C.2     1  UNL1        0.0665
     28 O         143.2553  143.9938  171.0633 O.co2   1  UNL1       -0.5477
     29 O         141.1362  142.7192  170.2665 O.co2   1  UNL1       -0.5477
@<TRIPOS>UNITY_ATOM_ATTR
28 1
charge -1
@<TRIPOS>BOND
     1     7     8    1
     2     8     9   ar
     3     9    10   ar
     4    10    11   ar
     5    11     1    1
     6     1     2    1
     7     2     3    1
     8     3     4    1
     9     4    16    1
    10    16    17    1
    11    17    18    1
    12    18    19    1
    13    19    20   ar
    14    20    21   ar
    15    21    22   ar
    16    22    23    1
    17    22    24   ar
    18    24    25   ar
    19    16    26    1
    20    26    27    1
    21    27    28   ar
    22    27    29   ar
    23     4     5    1
    24     5     6    1
    25    11    12   ar
    26    12     8   ar
    27     6     1    1
    28    25    19   ar
    29     7    13    1
    30     7    14    1
    31    12    15    1
@<TRIPOS>MOLECULE
*****
 29 31 0 0 0
SMALL
GASTEIGER

@<TRIPOS>ATOM
      1 N         139.5890  140.5182  167.6347 N.pl3   1  UNL1       -0.2784
      2 C         138.5999  139.4273  167.3497 C.3     1  UNL1        0.0950
      3 C         138.1307  139.1886  165.9452 C.3     1  UNL1        0.0375
      4 C         138.6506  140.0408  164.8256 C.3     1  UNL1        0.0613
      5 C         139.6397  141.1318  165.1107 C.3     1  UNL1        0.0375
      6 C         140.1089  141.3705  166.5152 C.3     1  UNL1        0.0950
      7 N         142.2819  142.3654  171.7842 N.pl3   1  UNL1       -0.3277
      8 C         141.2961  141.6060  170.9466 C.ar    1  UNL1        0.2131
      9 N         140.2647  140.6427  171.4549 N.ar    1  UNL1       -0.1121
     10 N         139.4998  140.1180  170.2762 N.ar    1  UNL1       -0.1117
     11 C         140.0583  140.7570  169.0393 C.ar    1  UNL1        0.2194
     12 N         141.1685  141.6767  169.4537 N.ar    1  UNL1       -0.2979
     13 H         142.2879  142.2514  172.7620 H       1  UNL1        0.1451
     14 H         142.9229  142.9779  171.3560 H       1  UNL1        0.1451
     15 H         141.7170  142.2296  168.8516 H       1  UNL1        0.1713
     16 N         138.1813  139.8021  163.4210 N.3     1  UNL1       -0.2689
     17 C         138.4923  138.5040  162.7368 C.3     1  UNL1        0.0771
     18 C         139.5205  137.5782  163.3164 C.3     1  UNL1        0.0437
     19 C         140.9159  138.0687  163.5658 C.ar    1  UNL1       -0.0207
     20 C         141.6841  138.7368  162.4642 C.ar    1  UNL1       -0.0034
     21 C         143.0795  139.2273  162.7136 C.ar    1  UNL1        0.0111
     22 C         143.7067  139.0497  164.0646 C.ar    1  UNL1        0.0577
     23 CL        145.1021  139.5402  164.3140 Cl      1  UNL1       -0.0822
     24 C         142.9385  138.3815  165.1661 C.ar    1  UNL1        0.0111
     25 C         141.5430  137.8910  164.9167 C.ar    1  UNL1       -0.0034
     26 C         137.4009  140.8615  162.7007 C.3     1  UNL1        0.1145
     27 C         138.1042  141.8186  161.7846 C.2     1  UNL1        0.0665
     28 O         137.7925  143.2845  161.8488 O.co2   1  UNL1       -0.5477
     29 O         139.1191  141.3098  160.8043 O.co2   1  UNL1       -0.5477
@<TRIPOS>UNITY_ATOM_ATTR
28 1
charge -1
@<TRIPOS>BOND
     1     7     8    1
     2     8     9   ar
     3     9    10   ar
     4    10    11   ar
     5    11     1    1
     6     1     2    1
     7     2     3    1
     8     3     4    1
     9     4    16    1
    10    16    17    1
    11    17    18    1
    12    18    19    1
    13    19    20   ar
    14    20    21   ar
    15    21    22   ar
    16    22    23    1
    17    22    24   ar
    18    24    25   ar
    19    16    26    1
    20    26    27    1
    21    27    28   ar
    22    27    29   ar
    23     4     5    1
    24     5     6    1
    25    11    12   ar
    26    12     8   ar
    27     6     1    1
    28    25    19   ar
    29     7    13    1
    30     7    14    1
    31    12    15    1
@<TRIPOS>MOLECULE
*****
 29 31 0 0 0
SMALL
GASTEIGER

@<TRIPOS>ATOM
      1 N         140.4383  141.6731  167.5408 N.pl3   1  UNL1       -0.2784
      2 C         140.7322  142.0340  166.1149 C.3     1  UNL1        0.0950
      3 C         140.2730  141.1365  165.0042 C.3     1  UNL1        0.0375
      4 C         139.5198  139.8782  165.3195 C.3     1  UNL1        0.0613
      5 C         139.2260  139.5173  166.7454 C.3     1  UNL1        0.0375
      6 C         139.6852  140.4147  167.8561 C.3     1  UNL1        0.0950
      7 N         143.4196  143.9178  171.2764 N.pl3   1  UNL1       -0.3277
      8 C         142.2678  143.6023  170.3686 C.ar    1  UNL1        0.2131
      9 N         140.9404  144.3008  170.3531 N.ar    1  UNL1       -0.1121
     10 N         140.0936  143.6631  169.2919 N.ar    1  UNL1       -0.1117
     11 C         140.8975  142.5705  168.6516 C.ar    1  UNL1        0.2194
     12 N         142.2413  142.5330  169.3171 N.ar    1  UNL1       -0.2979
     13 H         143.3405  144.6424  171.9382 H       1  UNL1        0.1451
     14 H         144.2545  143.4004  171.2104 H       1  UNL1        0.1451
     15 H         142.9767  141.9150  169.1015 H       1  UNL1        0.1713
     16 N         139.0606  138.9807  164.2087 N.3     1  UNL1       -0.2689
     17 C         139.2556  137.4972  164.3139 C.3     1  UNL1        0.0771
     18 C         140.6288  136.9095  164.1751 C.3     1  UNL1        0.0437
     19 C         141.8292  137.8082  164.1405 C.ar    1  UNL1       -0.0207
     20 C         142.5354  138.1658  165.4146 C.ar    1  UNL1       -0.0034
     21 C         143.7359  139.0645  165.3800 C.ar    1  UNL1        0.0111
     22 C         144.2301  139.6057  164.0712 C.ar    1  UNL1        0.0577
     23 CL        145.4306  140.5044  164.0365 Cl      1  UNL1       -0.0822
     24 C         143.5239  139.2481  162.7971 C.ar    1  UNL1        0.0111
     25 C         142.3234  138.3494  162.8317 C.ar    1  UNL1       -0.0034
     26 C         138.4064  139.5669  162.9928 C.3     1  UNL1        0.1145
     27 C         139.0519  139.4157  161.6473 C.2     1  UNL1        0.0665
     28 O         138.9231  138.1246  160.8945 O.co2   1  UNL1       -0.5477
     29 O         139.8262  140.5554  161.0546 O.co2   1  UNL1       -0.5477
@<TRIPOS>UNITY_ATOM_ATTR
28 1
charge -1
@<TRIPOS>BOND
     1     7     8    1
     2     8     9   ar
     3     9    10   ar
     4    10    11   ar
     5    11     1    1
     6     1     2    1
     7     2     3    1
     8     3     4    1
     9     4    16    1
    10    16    17    1
    11    17    18    1
    12    18    19    1
    13    19    20   ar
    14    20    21   ar
    15    21    22   ar
    16    22    23    1
    17    22    24   ar
    18    24    25   ar
    19    16    26    1
    20    26    27    1
    21    27    28   ar
    22    27    29   ar
    23     4     5    1
    24     5     6    1
    25    11    12   ar
    26    12     8   ar
    27     6     1    1
    28    25    19   ar
    29     7    13    1
    30     7    14    1
    31    12    15    1
@<TRIPOS>MOLECULE
*****
 29 31 0 0 0
SMALL
GASTEIGER

@<TRIPOS>ATOM
      1 N         142.7312  140.6855  167.1086 N.pl3   1  UNL1       -0.2784
      2 C         142.7279  141.5619  165.8913 C.3     1  UNL1        0.0950
      3 C         142.7867  140.9471  164.5244 C.3     1  UNL1        0.0375
      4 C         142.8489  139.4558  164.3748 C.3     1  UNL1        0.0613
      5 C         142.8521  138.5794  165.5921 C.3     1  UNL1        0.0375
      6 C         142.7933  139.1943  166.9590 C.3     1  UNL1        0.0950
      7 N         143.4633  143.9816  171.1683 N.pl3   1  UNL1       -0.3277
      8 C         143.0088  142.8154  170.3416 C.ar    1  UNL1        0.2131
      9 N         142.1546  141.6774  170.8167 N.ar    1  UNL1       -0.1121
     10 N         141.9467  140.7411  169.6634 N.ar    1  UNL1       -0.1117
     11 C         142.6723  141.3004  168.4756 C.ar    1  UNL1        0.2194
     12 N         143.3287  142.5823  168.8948 N.ar    1  UNL1       -0.2979
     13 H         143.1999  144.0464  172.1147 H       1  UNL1        0.1451
     14 H         144.0248  144.6822  170.7645 H       1  UNL1        0.1451
     15 H         143.8738  143.1679  168.3211 H       1  UNL1        0.1713
     16 N         142.9077  138.8410  163.0078 N.3     1  UNL1       -0.2689
     17 C         141.7229  138.0954  162.4692 C.3     1  UNL1        0.0771
     18 C         140.3559  138.7092  162.5377 C.3     1  UNL1        0.0437
     19 C         139.5676  138.6442  163.8122 C.ar    1  UNL1       -0.0207
     20 C         139.3239  137.3217  164.4767 C.ar    1  UNL1       -0.0034
     21 C         138.5356  137.2567  165.7512 C.ar    1  UNL1        0.0111
     22 C         137.9910  138.5143  166.3612 C.ar    1  UNL1        0.0577
     23 CL        137.2027  138.4492  167.6357 Cl      1  UNL1       -0.0822
     24 C         138.2346  139.8368  165.6967 C.ar    1  UNL1        0.0111
     25 C         139.0230  139.9017  164.4221 C.ar    1  UNL1       -0.0034
     26 C         144.1514  138.9718  162.1795 C.3     1  UNL1        0.1145
     27 C         144.1492  139.8377  160.9547 C.2     1  UNL1        0.0665
     28 O         144.0874  139.2110  159.5933 O.co2   1  UNL1       -0.5477
     29 O         144.2088  141.3303  161.0913 O.co2   1  UNL1       -0.5477
@<TRIPOS>UNITY_ATOM_ATTR
28 1
charge -1
@<TRIPOS>BOND
     1     7     8    1
     2     8     9   ar
     3     9    10   ar
     4    10    11   ar
     5    11     1    1
     6     1     2    1
     7     2     3    1
     8     3     4    1
     9     4    16    1
    10    16    17    1
    11    17    18    1
    12    18    19    1
    13    19    20   ar
    14    20    21   ar
    15    21    22   ar
    16    22    23    1
    17    22    24   ar
    18    24    25   ar
    19    16    26    1
    20    26    27    1
    21    27    28   ar
    22    27    29   ar
    23     4     5    1
    24     5     6    1
    25    11    12   ar
    26    12     8   ar
    27     6     1    1
    28    25    19   ar
    29     7    13    1
    30     7    14    1
    31    12    15    1
