@<TRIPOS>MOLECULE
*****
 40 44 0 0 0
SMALL
GASTEIGER

@<TRIPOS>ATOM
      1 C         143.2922  138.7024  164.7868 C.ar    1  UNL1        0.0056
      2 C         142.1590  137.9758  164.1252 C.ar    1  UNL1       -0.0018
      3 C         142.1028  137.8773  162.6295 C.ar    1  UNL1        0.0029
      4 C         143.1798  138.5054  161.7955 C.ar    1  UNL1        0.0391
      5 C         144.3130  139.2320  162.4572 C.ar    1  UNL1        0.0029
      6 C         144.3692  139.3305  163.9528 C.ar    1  UNL1       -0.0018
      7 C         143.1236  138.4069  160.2997 C.ar    1  UNL1        0.2037
      8 N         143.9262  139.2244  159.3315 N.ar    1  UNL1       -0.0555
      9 O         143.5535  138.7964  157.9430 O.2     1  UNL1       -0.3291
     10 C         142.5206  137.7143  158.0532 C.ar    1  UNL1        0.2973
     11 N         142.2549  137.4736  159.5097 N.ar    1  UNL1       -0.1843
     12 C         141.8679  136.9985  156.9078 C.ar    1  UNL1        0.2363
     13 O         140.6437  137.4505  156.1682 O.2     1  UNL1       -0.3486
     14 N         140.3441  136.4364  155.1043 N.ar    1  UNL1       -0.0768
     15 C         141.3832  135.3577  155.1863 C.ar    1  UNL1        0.1270
     16 C         142.3249  135.7051  156.3009 C.ar    1  UNL1        0.1340
     17 C         141.4659  134.1447  154.3080 C.ar    1  UNL1        0.0209
     18 C         141.2529  132.7797  154.8923 C.ar    1  UNL1        0.0016
     19 C         141.3356  131.5665  154.0139 C.ar    1  UNL1        0.0000
     20 C         141.6313  131.7185  152.5512 C.ar    1  UNL1        0.0000
     21 C         141.8443  133.0835  151.9669 C.ar    1  UNL1        0.0000
     22 C         141.7616  134.2966  152.8452 C.ar    1  UNL1        0.0016
     23 C         143.5148  134.9004  156.7329 C.3     1  UNL1        0.4232
     24 F         144.7047  134.0956  157.1648 F       1  UNL1       -0.1657
     25 F         144.3643  135.6149  155.7238 F       1  UNL1       -0.1657
     26 F         142.6654  134.1860  157.7419 F       1  UNL1       -0.1657
     27 C         143.3485  138.8010  166.2826 C.3     1  UNL1        0.1486
     28 O         144.1607  137.8152  167.0691 O.3     1  UNL1       -0.3786
     29 H         144.5821  137.1864  166.4625 H       1  UNL1        0.2108
     30 C         142.5925  139.8852  166.9918 C.3     1  UNL1        0.1063
     31 C         139.7119  141.8298  165.0759 C.3     1  UNL1        0.0216
     32 C         140.4499  143.0542  164.6218 C.3     1  UNL1        0.0032
     33 C         141.9021  143.2223  164.9578 C.3     1  UNL1        0.0174
     34 C         142.6163  142.1660  165.7477 C.3     1  UNL1        0.0722
     35 N         141.8783  140.9416  166.2017 N.3     1  UNL1       -0.2704
     36 C         140.4261  140.7735  165.8658 C.3     1  UNL1        0.0725
     37 C         138.2597  141.6617  164.7399 C.3     1  UNL1        0.0431
     38 O         138.2561  139.4130  163.4387 O.co2   1  UNL1       -0.5492
     39 C         137.8556  140.8549  163.5417 C.2     1  UNL1        0.0504
     40 O         137.0510  141.4899  162.4466 O.co2   1  UNL1       -0.5492
@<TRIPOS>UNITY_ATOM_ATTR
38 1
charge -1
@<TRIPOS>BOND
     1    38    39   ar
     2    39    40   ar
     3    39    37    1
     4    31    37    1
     5    31    32    1
     6    32    33    1
     7    33    34    1
     8    34    35    1
     9    35    30    1
    10    30    27    1
    11    27    28    1
    12    27     1    1
    13     1     2   ar
    14     2     3   ar
    15     3     4   ar
    16     4     7    1
    17     7     8   ar
    18     8     9   ar
    19     9    10   ar
    20    10    12    1
    21    12    13   ar
    22    13    14   ar
    23    14    15   ar
    24    15    17    1
    25    17    18   ar
    26    18    19   ar
    27    19    20   ar
    28    20    21   ar
    29    21    22   ar
    30    15    16   ar
    31    16    23    1
    32    23    24    1
    33    23    25    1
    34    23    26    1
    35    10    11   ar
    36     4     5   ar
    37     5     6   ar
    38    35    36    1
    39    36    31    1
    40     6     1   ar
    41    11     7   ar
    42    16    12   ar
    43    22    17   ar
    44    28    29    1
@<TRIPOS>MOLECULE
*****
 40 44 0 0 0
SMALL
GASTEIGER

@<TRIPOS>ATOM
      1 C         143.5062  139.0983  163.9261 C.ar    1  UNL1        0.0056
      2 C         144.4592  139.7792  162.9892 C.ar    1  UNL1       -0.0018
      3 C         144.3347  139.5692  161.5092 C.ar    1  UNL1        0.0029
      4 C         143.2571  138.6781  160.9662 C.ar    1  UNL1        0.0391
      5 C         142.3040  137.9972  161.9032 C.ar    1  UNL1        0.0029
      6 C         142.4286  138.2072  163.3831 C.ar    1  UNL1       -0.0018
      7 C         143.1326  138.4681  159.4862 C.ar    1  UNL1        0.2037
      8 N         143.7903  139.2934  158.4201 N.ar    1  UNL1       -0.0555
      9 O         143.3927  138.7313  157.0875 O.2     1  UNL1       -0.3291
     10 C         142.4893  137.5586  157.3299 C.ar    1  UNL1        0.2973
     11 N         142.3286  137.3960  158.8124 N.ar    1  UNL1       -0.1843
     12 C         141.8576  136.6994  156.2750 C.ar    1  UNL1        0.2363
     13 O         140.6622  137.0597  155.4436 O.2     1  UNL1       -0.3486
     14 N         140.3762  135.9121  154.5211 N.ar    1  UNL1       -0.0768
     15 C         141.3949  134.8424  154.7824 C.ar    1  UNL1        0.1270
     16 C         142.3104  135.3290  155.8663 C.ar    1  UNL1        0.1340
     17 C         141.4825  133.5187  154.0825 C.ar    1  UNL1        0.0209
     18 C         141.9734  133.4499  152.6667 C.ar    1  UNL1        0.0016
     19 C         142.0610  132.1260  151.9668 C.ar    1  UNL1        0.0000
     20 C         141.6578  130.8711  152.6826 C.ar    1  UNL1        0.0000
     21 C         141.1669  130.9399  154.0983 C.ar    1  UNL1        0.0000
     22 C         141.0792  132.2636  154.7983 C.ar    1  UNL1        0.0016
     23 C         143.4743  134.5772  156.4407 C.3     1  UNL1        0.4232
     24 F         144.6384  133.8254  157.0152 F       1  UNL1       -0.1657
     25 F         142.5345  133.7631  157.2799 F       1  UNL1       -0.1657
     26 F         144.4142  135.3913  155.6017 F       1  UNL1       -0.1657
     27 C         143.6307  139.3083  165.4062 C.3     1  UNL1        0.1486
     28 O         144.1199  138.1941  166.2832 O.3     1  UNL1       -0.3786
     29 H         144.3100  137.4140  165.7391 H       1  UNL1        0.2108
     30 C         143.2659  140.6325  166.0091 C.3     1  UNL1        0.1063
     31 C         140.6944  142.0371  168.6857 C.3     1  UNL1        0.0216
     32 C         139.6273  140.9842  168.6334 C.3     1  UNL1        0.0032
     33 C         139.7731  139.8140  167.7063 C.3     1  UNL1        0.0174
     34 C         140.9859  139.6968  166.8315 C.3     1  UNL1        0.0722
     35 N         142.0530  140.7497  166.8839 N.3     1  UNL1       -0.2704
     36 C         141.9072  141.9198  167.8110 C.3     1  UNL1        0.0725
     37 C         140.5486  143.2072  169.6128 C.3     1  UNL1        0.0431
     38 O         138.7778  143.7239  171.4424 O.co2   1  UNL1       -0.5492
     39 C         140.0167  143.0030  171.0004 C.2     1  UNL1        0.0504
     40 O         140.7238  142.0778  171.9460 O.co2   1  UNL1       -0.5492
@<TRIPOS>UNITY_ATOM_ATTR
38 1
charge -1
@<TRIPOS>BOND
     1    38    39   ar
     2    39    40   ar
     3    39    37    1
     4    31    37    1
     5    31    32    1
     6    32    33    1
     7    33    34    1
     8    34    35    1
     9    35    30    1
    10    30    27    1
    11    27    28    1
    12    27     1    1
    13     1     2   ar
    14     2     3   ar
    15     3     4   ar
    16     4     7    1
    17     7     8   ar
    18     8     9   ar
    19     9    10   ar
    20    10    12    1
    21    12    13   ar
    22    13    14   ar
    23    14    15   ar
    24    15    17    1
    25    17    18   ar
    26    18    19   ar
    27    19    20   ar
    28    20    21   ar
    29    21    22   ar
    30    15    16   ar
    31    16    23    1
    32    23    24    1
    33    23    25    1
    34    23    26    1
    35    10    11   ar
    36     4     5   ar
    37     5     6   ar
    38    35    36    1
    39    36    31    1
    40     6     1   ar
    41    11     7   ar
    42    16    12   ar
    43    22    17   ar
    44    28    29    1
@<TRIPOS>MOLECULE
*****
 40 44 0 0 0
SMALL
GASTEIGER

@<TRIPOS>ATOM
      1 C         143.2351  138.8592  164.5875 C.ar    1  UNL1        0.0056
      2 C         144.3202  139.4443  163.7331 C.ar    1  UNL1       -0.0018
      3 C         144.2641  139.2933  162.2418 C.ar    1  UNL1        0.0029
      4 C         143.1229  138.5571  161.6049 C.ar    1  UNL1        0.0391
      5 C         142.0377  137.9720  162.4593 C.ar    1  UNL1        0.0029
      6 C         142.0939  138.1230  163.9506 C.ar    1  UNL1       -0.0018
      7 C         143.0668  138.4060  160.1135 C.ar    1  UNL1        0.2037
      8 N         143.8739  139.1849  159.1175 N.ar    1  UNL1       -0.0555
      9 O         143.4997  138.7099  157.7448 O.2     1  UNL1       -0.3291
     10 C         142.4614  137.6374  157.8924 C.ar    1  UNL1        0.2973
     11 N         142.1939  137.4496  159.3564 N.ar    1  UNL1       -0.1843
     12 C         141.8058  136.8848  156.7727 C.ar    1  UNL1        0.2363
     13 O         140.5760  137.3096  156.0262 O.2     1  UNL1       -0.3486
     14 N         140.2750  136.2627  154.9950 N.ar    1  UNL1       -0.0768
     15 C         141.3187  135.1909  155.1042 C.ar    1  UNL1        0.1270
     16 C         142.2648  135.5755  156.2029 C.ar    1  UNL1        0.1340
     17 C         141.4017  133.9522  154.2625 C.ar    1  UNL1        0.0209
     18 C         141.8171  134.0491  152.8244 C.ar    1  UNL1        0.0016
     19 C         141.9002  132.8103  151.9826 C.ar    1  UNL1        0.0000
     20 C         141.5678  131.4747  152.5789 C.ar    1  UNL1        0.0000
     21 C         141.1525  131.3778  154.0170 C.ar    1  UNL1        0.0000
     22 C         141.0694  132.6165  154.8588 C.ar    1  UNL1        0.0016
     23 C         143.4600  134.7887  156.6527 C.3     1  UNL1        0.4232
     24 F         144.6553  134.0019  157.1026 F       1  UNL1       -0.1657
     25 F         144.3586  135.7204  155.8946 F       1  UNL1       -0.1657
     26 F         142.5615  133.8571  157.4108 F       1  UNL1       -0.1657
     27 C         143.2912  139.0103  166.0788 C.3     1  UNL1        0.1486
     28 O         144.0766  138.0333  166.9026 O.3     1  UNL1       -0.3786
     29 H         144.4829  137.3725  166.3202 H       1  UNL1        0.2108
     30 C         142.5618  140.1382  166.7464 C.3     1  UNL1        0.1063
     31 C         141.8779  143.3690  164.5454 C.3     1  UNL1        0.0216
     32 C         140.4137  143.2128  164.2599 C.3     1  UNL1        0.0032
     33 C         139.6655  142.0317  164.8033 C.3     1  UNL1        0.0174
     34 C         140.3815  141.0069  165.6321 C.3     1  UNL1        0.0722
     35 N         141.8457  141.1631  165.9175 N.3     1  UNL1       -0.2704
     36 C         142.5940  142.3442  165.3742 C.3     1  UNL1        0.0725
     37 C         142.6262  144.5501  164.0020 C.3     1  UNL1        0.0431
     38 O         144.5962  144.3128  162.3249 O.co2   1  UNL1       -0.5492
     39 C         143.1362  144.5306  162.5916 C.2     1  UNL1        0.0504
     40 O         142.1863  144.7291  161.4477 O.co2   1  UNL1       -0.5492
@<TRIPOS>UNITY_ATOM_ATTR
38 1
charge -1
@<TRIPOS>BOND
     1    38    39   ar
     2    39    40   ar
     3    39    37    1
     4    31    37    1
     5    31    32    1
     6    32    33    1
     7    33    34    1
     8    34    35    1
     9    35    30    1
    10    30    27    1
    11    27    28    1
    12    27     1    1
    13     1     2   ar
    14     2     3   ar
    15     3     4   ar
    16     4     7    1
    17     7     8   ar
    18     8     9   ar
    19     9    10   ar
    20    10    12    1
    21    12    13   ar
    22    13    14   ar
    23    14    15   ar
    24    15    17    1
    25    17    18   ar
    26    18    19   ar
    27    19    20   ar
    28    20    21   ar
    29    21    22   ar
    30    15    16   ar
    31    16    23    1
    32    23    24    1
    33    23    25    1
    34    23    26    1
    35    10    11   ar
    36     4     5   ar
    37     5     6   ar
    38    35    36    1
    39    36    31    1
    40     6     1   ar
    41    11     7   ar
    42    16    12   ar
    43    22    17   ar
    44    28    29    1
@<TRIPOS>MOLECULE
*****
 40 44 0 0 0
SMALL
GASTEIGER

@<TRIPOS>ATOM
      1 C         141.6670  138.0954  157.7565 C.ar    1  UNL1        0.0056
      2 C         140.2120  138.4461  157.6577 C.ar    1  UNL1       -0.0018
      3 C         139.4398  138.7986  158.8944 C.ar    1  UNL1        0.0029
      4 C         140.1227  138.8003  160.2300 C.ar    1  UNL1        0.0391
      5 C         141.5777  138.4496  160.3288 C.ar    1  UNL1        0.0029
      6 C         142.3499  138.0972  159.0921 C.ar    1  UNL1       -0.0018
      7 C         139.3504  139.1528  161.4667 C.ar    1  UNL1        0.2037
      8 N         137.9842  139.7706  161.5069 N.ar    1  UNL1       -0.0555
      9 O         137.5982  139.9489  162.9453 O.2     1  UNL1       -0.3291
     10 C         138.7260  139.4413  163.7942 C.ar    1  UNL1        0.2973
     11 N         139.8089  138.9493  162.8803 N.ar    1  UNL1       -0.1843
     12 C         138.7641  139.4281  165.2937 C.ar    1  UNL1        0.2363
     13 O         137.7439  138.7997  166.1961 O.2     1  UNL1       -0.3486
     14 N         138.1784  139.0242  167.6141 N.ar    1  UNL1       -0.0768
     15 C         139.4671  139.7914  167.5881 C.ar    1  UNL1        0.1270
     16 C         139.8290  140.0410  166.1540 C.ar    1  UNL1        0.1340
     17 C         140.2553  140.2316  168.7859 C.ar    1  UNL1        0.0209
     18 C         139.6574  141.2007  169.7623 C.ar    1  UNL1        0.0016
     19 C         140.4456  141.6410  170.9602 C.ar    1  UNL1        0.0000
     20 C         141.8317  141.1121  171.1816 C.ar    1  UNL1        0.0000
     21 C         142.4296  140.1431  170.2052 C.ar    1  UNL1        0.0000
     22 C         141.6414  139.7028  169.0074 C.ar    1  UNL1        0.0016
     23 C         141.0428  140.7747  165.6659 C.3     1  UNL1        0.4232
     24 F         142.2568  141.5085  165.1778 F       1  UNL1       -0.1657
     25 F         140.3194  142.0789  165.8274 F       1  UNL1       -0.1657
     26 F         141.7662  139.4707  165.5045 F       1  UNL1       -0.1657
     27 C         142.4393  137.7430  156.5198 C.3     1  UNL1        0.1486
     28 O         143.9200  137.9772  156.4680 O.3     1  UNL1       -0.3786
     29 H         144.2167  138.3582  157.3092 H       1  UNL1        0.2108
     30 C         141.7308  137.1564  155.3349 C.3     1  UNL1        0.1063
     31 C         142.4104  133.2846  155.8808 C.3     1  UNL1        0.0216
     32 C         141.8661  132.7184  154.6029 C.3     1  UNL1        0.0032
     33 C         141.2767  133.6314  153.5690 C.3     1  UNL1        0.0174
     34 C         141.2316  135.1107  153.8130 C.3     1  UNL1        0.0722
     35 N         141.7759  135.6770  155.0909 N.3     1  UNL1       -0.2704
     36 C         142.3653  134.7639  156.1248 C.3     1  UNL1        0.0725
     37 C         142.9999  132.3716  156.9147 C.3     1  UNL1        0.0431
     38 O         145.3285  131.5691  156.0878 O.co2   1  UNL1       -0.5492
     39 C         144.4876  132.3005  157.0919 C.2     1  UNL1        0.0504
     40 O         145.1347  132.9609  158.2731 O.co2   1  UNL1       -0.5492
@<TRIPOS>UNITY_ATOM_ATTR
38 1
charge -1
@<TRIPOS>BOND
     1    38    39   ar
     2    39    40   ar
     3    39    37    1
     4    31    37    1
     5    31    32    1
     6    32    33    1
     7    33    34    1
     8    34    35    1
     9    35    30    1
    10    30    27    1
    11    27    28    1
    12    27     1    1
    13     1     2   ar
    14     2     3   ar
    15     3     4   ar
    16     4     7    1
    17     7     8   ar
    18     8     9   ar
    19     9    10   ar
    20    10    12    1
    21    12    13   ar
    22    13    14   ar
    23    14    15   ar
    24    15    17    1
    25    17    18   ar
    26    18    19   ar
    27    19    20   ar
    28    20    21   ar
    29    21    22   ar
    30    15    16   ar
    31    16    23    1
    32    23    24    1
    33    23    25    1
    34    23    26    1
    35    10    11   ar
    36     4     5   ar
    37     5     6   ar
    38    35    36    1
    39    36    31    1
    40     6     1   ar
    41    11     7   ar
    42    16    12   ar
    43    22    17   ar
    44    28    29    1
@<TRIPOS>MOLECULE
*****
 40 44 0 0 0
SMALL
GASTEIGER

@<TRIPOS>ATOM
      1 C         141.2568  145.1860  155.8660 C.ar    1  UNL1        0.0056
      2 C         140.0555  144.4894  156.4331 C.ar    1  UNL1       -0.0018
      3 C         139.8334  144.4650  157.9164 C.ar    1  UNL1        0.0029
      4 C         140.8126  145.1372  158.8325 C.ar    1  UNL1        0.0391
      5 C         142.0139  145.8338  158.2654 C.ar    1  UNL1        0.0029
      6 C         142.2359  145.8582  156.7822 C.ar    1  UNL1       -0.0018
      7 C         140.5905  145.1128  160.3158 C.ar    1  UNL1        0.2037
      8 N         139.6734  146.0169  161.0850 N.ar    1  UNL1       -0.0555
      9 O         139.7625  145.6429  162.5349 O.2     1  UNL1       -0.3291
     10 C         140.7348  144.5076  162.6618 C.ar    1  UNL1        0.2973
     11 N         141.2464  144.1800  161.2903 N.ar    1  UNL1       -0.1843
     12 C         141.1265  143.8206  163.9364 C.ar    1  UNL1        0.2363
     13 O         142.5116  143.3862  164.3141 O.2     1  UNL1       -0.3486
     14 N         142.4430  142.7445  165.6682 N.ar    1  UNL1       -0.0768
     15 C         141.0155  142.7823  166.1273 C.ar    1  UNL1        0.1270
     16 C         140.2019  143.4474  165.0570 C.ar    1  UNL1        0.1340
     17 C         140.4934  142.2487  167.4283 C.ar    1  UNL1        0.0209
     18 C         139.9387  140.8568  167.4994 C.ar    1  UNL1        0.0016
     19 C         139.4165  140.3232  168.8005 C.ar    1  UNL1        0.0000
     20 C         139.4492  141.1814  170.0302 C.ar    1  UNL1        0.0000
     21 C         140.0039  142.5732  169.9591 C.ar    1  UNL1        0.0000
     22 C         140.5261  143.1069  168.6581 C.ar    1  UNL1        0.0016
     23 C         138.7232  143.6956  165.0997 C.3     1  UNL1        0.4232
     24 F         137.2444  143.9438  165.1425 F       1  UNL1       -0.1657
     25 F         138.9732  145.1110  165.5292 F       1  UNL1       -0.1657
     26 F         138.4732  142.2803  164.6703 F       1  UNL1       -0.1657
     27 C         141.4789  145.2104  154.3827 C.3     1  UNL1        0.1486
     28 O         142.6733  144.5219  153.7918 O.3     1  UNL1       -0.3786
     29 H         143.1948  144.1139  154.5007 H       1  UNL1        0.2108
     30 C         140.5066  145.9234  153.4904 C.3     1  UNL1        0.1063
     31 C         139.6314  149.6936  154.3677 C.3     1  UNL1        0.0216
     32 C         140.4609  150.4210  153.3515 C.3     1  UNL1        0.0032
     33 C         141.3057  149.6492  152.3816 C.3     1  UNL1        0.0174
     34 C         141.3210  148.1501  152.4279 C.3     1  UNL1        0.0722
     35 N         140.4914  147.4227  153.4441 N.3     1  UNL1       -0.2704
     36 C         139.6466  148.1944  154.4140 C.3     1  UNL1        0.0725
     37 C         138.7865  150.4654  155.3376 C.3     1  UNL1        0.0431
     38 O         138.1797  152.5248  153.8745 O.co2   1  UNL1       -0.5492
     39 C         138.6337  151.9496  155.1834 C.2     1  UNL1        0.0504
     40 O         138.9348  152.8585  156.3380 O.co2   1  UNL1       -0.5492
@<TRIPOS>UNITY_ATOM_ATTR
38 1
charge -1
@<TRIPOS>BOND
     1    38    39   ar
     2    39    40   ar
     3    39    37    1
     4    31    37    1
     5    31    32    1
     6    32    33    1
     7    33    34    1
     8    34    35    1
     9    35    30    1
    10    30    27    1
    11    27    28    1
    12    27     1    1
    13     1     2   ar
    14     2     3   ar
    15     3     4   ar
    16     4     7    1
    17     7     8   ar
    18     8     9   ar
    19     9    10   ar
    20    10    12    1
    21    12    13   ar
    22    13    14   ar
    23    14    15   ar
    24    15    17    1
    25    17    18   ar
    26    18    19   ar
    27    19    20   ar
    28    20    21   ar
    29    21    22   ar
    30    15    16   ar
    31    16    23    1
    32    23    24    1
    33    23    25    1
    34    23    26    1
    35    10    11   ar
    36     4     5   ar
    37     5     6   ar
    38    35    36    1
    39    36    31    1
    40     6     1   ar
    41    11     7   ar
    42    16    12   ar
    43    22    17   ar
    44    28    29    1
@<TRIPOS>MOLECULE
*****
 40 44 0 0 0
SMALL
GASTEIGER

@<TRIPOS>ATOM
      1 C         139.5813  139.0929  157.2990 C.ar    1  UNL1        0.0056
      2 C         140.1166  138.3126  158.4628 C.ar    1  UNL1       -0.0018
      3 C         139.7035  138.6709  159.8596 C.ar    1  UNL1        0.0029
      4 C         138.7552  139.8095  160.0924 C.ar    1  UNL1        0.0391
      5 C         138.2199  140.5898  158.9286 C.ar    1  UNL1        0.0029
      6 C         138.6330  140.2315  157.5319 C.ar    1  UNL1       -0.0018
      7 C         138.3421  140.1678  161.4893 C.ar    1  UNL1        0.2037
      8 N         137.3045  141.1824  161.8690 N.ar    1  UNL1       -0.0555
      9 O         137.2152  141.2161  163.3660 O.2     1  UNL1       -0.3291
     10 C         138.1976  140.2223  163.9114 C.ar    1  UNL1        0.2973
     11 N         138.8940  139.5744  162.7515 N.ar    1  UNL1       -0.1843
     12 C         138.4408  139.9280  165.3620 C.ar    1  UNL1        0.2363
     13 O         137.6535  138.9758  166.2125 O.2     1  UNL1       -0.3486
     14 N         138.2401  138.9936  167.5930 N.ar    1  UNL1       -0.0768
     15 C         139.3899  139.9569  167.5956 C.ar    1  UNL1        0.1270
     16 C         139.5139  140.5344  166.2168 C.ar    1  UNL1        0.1340
     17 C         140.2624  140.2850  168.7707 C.ar    1  UNL1        0.0209
     18 C         141.6446  139.7094  168.8625 C.ar    1  UNL1        0.0016
     19 C         142.5172  140.0375  170.0377 C.ar    1  UNL1        0.0000
     20 C         142.0076  140.9412  171.1209 C.ar    1  UNL1        0.0000
     21 C         140.6255  141.5169  171.0292 C.ar    1  UNL1        0.0000
     22 C         139.7529  141.1888  169.8541 C.ar    1  UNL1        0.0016
     23 C         140.5322  141.5415  165.7711 C.3     1  UNL1        0.4232
     24 F         141.5506  142.5487  165.3253 F       1  UNL1       -0.1657
     25 F         141.4584  140.4298  165.3753 F       1  UNL1       -0.1657
     26 F         139.6061  142.6531  166.1668 F       1  UNL1       -0.1657
     27 C         139.9944  138.7346  155.9021 C.3     1  UNL1        0.1486
     28 O         140.8823  139.6585  155.1223 O.3     1  UNL1       -0.3786
     29 H         141.0954  140.4350  155.6631 H       1  UNL1        0.2108
     30 C         139.5196  137.4524  155.2852 C.3     1  UNL1        0.1063
     31 C         142.4568  134.7945  155.5266 C.3     1  UNL1        0.0216
     32 C         142.4915  134.2816  154.1175 C.3     1  UNL1        0.0032
     33 C         141.5355  134.8255  153.0976 C.3     1  UNL1        0.0174
     34 C         140.5449  135.8825  153.4868 C.3     1  UNL1        0.0722
     35 N         140.5103  136.3954  154.8959 N.3     1  UNL1       -0.2704
     36 C         141.4662  135.8514  155.9158 C.3     1  UNL1        0.0725
     37 C         143.4128  134.2505  156.5465 C.3     1  UNL1        0.0431
     38 O         142.7335  131.8345  157.2185 O.co2   1  UNL1       -0.5492
     39 C         143.7107  132.7810  156.5865 C.2     1  UNL1        0.0504
     40 O         144.9858  132.2578  155.9946 O.co2   1  UNL1       -0.5492
@<TRIPOS>UNITY_ATOM_ATTR
38 1
charge -1
@<TRIPOS>BOND
     1    38    39   ar
     2    39    40   ar
     3    39    37    1
     4    31    37    1
     5    31    32    1
     6    32    33    1
     7    33    34    1
     8    34    35    1
     9    35    30    1
    10    30    27    1
    11    27    28    1
    12    27     1    1
    13     1     2   ar
    14     2     3   ar
    15     3     4   ar
    16     4     7    1
    17     7     8   ar
    18     8     9   ar
    19     9    10   ar
    20    10    12    1
    21    12    13   ar
    22    13    14   ar
    23    14    15   ar
    24    15    17    1
    25    17    18   ar
    26    18    19   ar
    27    19    20   ar
    28    20    21   ar
    29    21    22   ar
    30    15    16   ar
    31    16    23    1
    32    23    24    1
    33    23    25    1
    34    23    26    1
    35    10    11   ar
    36     4     5   ar
    37     5     6   ar
    38    35    36    1
    39    36    31    1
    40     6     1   ar
    41    11     7   ar
    42    16    12   ar
    43    22    17   ar
    44    28    29    1
@<TRIPOS>MOLECULE
*****
 40 44 0 0 0
SMALL
GASTEIGER

@<TRIPOS>ATOM
      1 C         138.9826  139.5264  163.2376 C.ar    1  UNL1        0.0056
      2 C         137.9882  140.5394  162.7531 C.ar    1  UNL1       -0.0018
      3 C         138.1818  141.2032  161.4220 C.ar    1  UNL1        0.0029
      4 C         139.3699  140.8541  160.5755 C.ar    1  UNL1        0.0391
      5 C         140.3644  139.8411  161.0601 C.ar    1  UNL1        0.0029
      6 C         140.1707  139.1773  162.3912 C.ar    1  UNL1       -0.0018
      7 C         139.5635  141.5180  159.2444 C.ar    1  UNL1        0.2037
      8 N         140.4888  141.0592  158.1566 N.ar    1  UNL1       -0.0555
      9 O         140.3630  142.0148  157.0073 O.2     1  UNL1       -0.3291
     10 C         139.3599  143.0643  157.3848 C.ar    1  UNL1        0.2973
     11 N         138.8658  142.7572  158.7674 N.ar    1  UNL1       -0.1843
     12 C         138.9269  144.2182  156.5298 C.ar    1  UNL1        0.2363
     13 O         137.7244  144.2492  155.6337 O.2     1  UNL1       -0.3486
     14 N         137.6747  145.5939  154.9709 N.ar    1  UNL1       -0.0768
     15 C         138.8466  146.3940  155.4574 C.ar    1  UNL1        0.1270
     16 C         139.6204  145.5438  156.4208 C.ar    1  UNL1        0.1340
     17 C         139.1850  147.7978  155.0516 C.ar    1  UNL1        0.0209
     18 C         138.5933  148.9572  155.7971 C.ar    1  UNL1        0.0016
     19 C         138.9318  150.3612  155.3912 C.ar    1  UNL1        0.0000
     20 C         139.8618  150.6055  154.2401 C.ar    1  UNL1        0.0000
     21 C         140.4535  149.4461  153.4946 C.ar    1  UNL1        0.0000
     22 C         140.1151  148.0422  153.9004 C.ar    1  UNL1        0.0016
     23 C         140.8687  145.9481  157.1476 C.3     1  UNL1        0.4232
     24 F         142.1170  146.3526  157.8746 F       1  UNL1       -0.1657
     25 F         141.6759  145.6760  155.9129 F       1  UNL1       -0.1657
     26 F         140.0616  146.2203  158.3823 F       1  UNL1       -0.1657
     27 C         138.7890  138.8625  164.5688 C.3     1  UNL1        0.1486
     28 O         138.7586  137.3658  164.6630 O.3     1  UNL1       -0.3786
     29 H         138.8777  136.9837  163.7794 H       1  UNL1        0.2108
     30 C         138.6258  139.6953  165.8056 C.3     1  UNL1        0.1063
     31 C         140.5782  140.2250  169.2199 C.3     1  UNL1        0.0216
     32 C         141.9926  139.9961  168.7762 C.3     1  UNL1        0.0032
     33 C         142.2848  139.6670  167.3422 C.3     1  UNL1        0.0174
     34 C         141.1625  139.5667  166.3520 C.3     1  UNL1        0.0722
     35 N         139.7481  139.7956  166.7958 N.3     1  UNL1       -0.2704
     36 C         139.4559  140.1247  168.2298 C.3     1  UNL1        0.0725
     37 C         140.2860  140.5541  170.6539 C.3     1  UNL1        0.0431
     38 O         139.5711  143.0082  171.1195 O.co2   1  UNL1       -0.5492
     39 C         140.6008  141.9195  171.1892 C.2     1  UNL1        0.0504
     40 O         141.9451  142.1963  171.7942 O.co2   1  UNL1       -0.5492
@<TRIPOS>UNITY_ATOM_ATTR
38 1
charge -1
@<TRIPOS>BOND
     1    38    39   ar
     2    39    40   ar
     3    39    37    1
     4    31    37    1
     5    31    32    1
     6    32    33    1
     7    33    34    1
     8    34    35    1
     9    35    30    1
    10    30    27    1
    11    27    28    1
    12    27     1    1
    13     1     2   ar
    14     2     3   ar
    15     3     4   ar
    16     4     7    1
    17     7     8   ar
    18     8     9   ar
    19     9    10   ar
    20    10    12    1
    21    12    13   ar
    22    13    14   ar
    23    14    15   ar
    24    15    17    1
    25    17    18   ar
    26    18    19   ar
    27    19    20   ar
    28    20    21   ar
    29    21    22   ar
    30    15    16   ar
    31    16    23    1
    32    23    24    1
    33    23    25    1
    34    23    26    1
    35    10    11   ar
    36     4     5   ar
    37     5     6   ar
    38    35    36    1
    39    36    31    1
    40     6     1   ar
    41    11     7   ar
    42    16    12   ar
    43    22    17   ar
    44    28    29    1
@<TRIPOS>MOLECULE
*****
 40 44 0 0 0
SMALL
GASTEIGER

@<TRIPOS>ATOM
      1 C         140.7362  144.8569  155.7925 C.ar    1  UNL1        0.0056
      2 C         141.5986  145.8100  156.5656 C.ar    1  UNL1       -0.0018
      3 C         141.4969  145.8693  158.0610 C.ar    1  UNL1        0.0029
      4 C         140.5327  144.9756  158.7832 C.ar    1  UNL1        0.0391
      5 C         139.6702  144.0225  158.0100 C.ar    1  UNL1        0.0029
      6 C         139.7720  143.9632  156.5147 C.ar    1  UNL1       -0.0018
      7 C         140.4310  145.0350  160.2786 C.ar    1  UNL1        0.2037
      8 N         139.7007  146.0777  161.0719 N.ar    1  UNL1       -0.0555
      9 O         139.8600  145.7493  162.5268 O.2     1  UNL1       -0.3291
     10 C         140.6888  144.5035  162.6326 C.ar    1  UNL1        0.2973
     11 N         141.0416  144.0620  161.2432 N.ar    1  UNL1       -0.1843
     12 C         141.0936  143.8193  163.9047 C.ar    1  UNL1        0.2363
     13 O         142.4861  143.4056  164.2787 O.2     1  UNL1       -0.3486
     14 N         142.4301  142.7593  165.6311 N.ar    1  UNL1       -0.0768
     15 C         141.0030  142.7735  166.0930 C.ar    1  UNL1        0.1270
     16 C         140.1771  143.4286  165.0259 C.ar    1  UNL1        0.1340
     17 C         140.4918  142.2283  167.3934 C.ar    1  UNL1        0.0209
     18 C         139.9418  140.8342  167.4578 C.ar    1  UNL1        0.0016
     19 C         139.4305  140.2890  168.7584 C.ar    1  UNL1        0.0000
     20 C         139.4692  141.1378  169.9944 C.ar    1  UNL1        0.0000
     21 C         140.0192  142.5319  169.9301 C.ar    1  UNL1        0.0000
     22 C         140.5304  143.0771  168.6296 C.ar    1  UNL1        0.0016
     23 C         138.6948  143.6535  165.0721 C.3     1  UNL1        0.4232
     24 F         137.2124  143.8785  165.1182 F       1  UNL1       -0.1657
     25 F         138.9225  145.0563  165.5523 F       1  UNL1       -0.1657
     26 F         138.4670  142.2509  164.5918 F       1  UNL1       -0.1657
     27 C         140.8379  144.7975  154.2971 C.3     1  UNL1        0.1486
     28 O         140.0910  145.7886  153.4546 O.3     1  UNL1       -0.3786
     29 H         139.5954  146.3930  154.0292 H       1  UNL1        0.2108
     30 C         141.6865  143.7470  153.6442 C.3     1  UNL1        0.1063
     31 C         145.4865  143.0753  154.5707 C.3     1  UNL1        0.0216
     32 C         146.1713  144.1073  153.7245 C.3     1  UNL1        0.0032
     33 C         145.3612  145.0191  152.8515 C.3     1  UNL1        0.0174
     34 C         143.8662  144.8991  152.8247 C.3     1  UNL1        0.0722
     35 N         143.1815  143.8671  153.6709 N.3     1  UNL1       -0.2704
     36 C         143.9916  142.9552  154.5439 C.3     1  UNL1        0.0725
     37 C         146.2967  142.1634  155.4437 C.3     1  UNL1        0.0431
     38 O         145.6915  142.5848  157.9349 O.co2   1  UNL1       -0.5492
     39 C         145.7324  141.6734  156.7442 C.2     1  UNL1        0.0504
     40 O         145.2089  140.2720  156.8541 O.co2   1  UNL1       -0.5492
@<TRIPOS>UNITY_ATOM_ATTR
38 1
charge -1
@<TRIPOS>BOND
     1    38    39   ar
     2    39    40   ar
     3    39    37    1
     4    31    37    1
     5    31    32    1
     6    32    33    1
     7    33    34    1
     8    34    35    1
     9    35    30    1
    10    30    27    1
    11    27    28    1
    12    27     1    1
    13     1     2   ar
    14     2     3   ar
    15     3     4   ar
    16     4     7    1
    17     7     8   ar
    18     8     9   ar
    19     9    10   ar
    20    10    12    1
    21    12    13   ar
    22    13    14   ar
    23    14    15   ar
    24    15    17    1
    25    17    18   ar
    26    18    19   ar
    27    19    20   ar
    28    20    21   ar
    29    21    22   ar
    30    15    16   ar
    31    16    23    1
    32    23    24    1
    33    23    25    1
    34    23    26    1
    35    10    11   ar
    36     4     5   ar
    37     5     6   ar
    38    35    36    1
    39    36    31    1
    40     6     1   ar
    41    11     7   ar
    42    16    12   ar
    43    22    17   ar
    44    28    29    1
@<TRIPOS>MOLECULE
*****
 40 44 0 0 0
SMALL
GASTEIGER

@<TRIPOS>ATOM
      1 C         140.6943  137.6201  157.3873 C.ar    1  UNL1        0.0056
      2 C         139.8958  138.2743  158.4756 C.ar    1  UNL1       -0.0018
      3 C         140.5640  138.6795  159.7559 C.ar    1  UNL1        0.0029
      4 C         142.0307  138.4305  159.9480 C.ar    1  UNL1        0.0391
      5 C         142.8291  137.7763  158.8597 C.ar    1  UNL1        0.0029
      6 C         142.1609  137.3711  157.5794 C.ar    1  UNL1       -0.0018
      7 C         142.6988  138.8357  161.2284 C.ar    1  UNL1        0.2037
      8 N         144.1141  139.3116  161.3722 N.ar    1  UNL1       -0.0555
      9 O         144.3591  139.6062  162.8224 O.2     1  UNL1       -0.3291
     10 C         143.0951  139.3124  163.5749 C.ar    1  UNL1        0.2973
     11 N         142.0691  138.8362  162.5898 N.ar    1  UNL1       -0.1843
     12 C         142.8928  139.4676  165.0531 C.ar    1  UNL1        0.2363
     13 O         143.6081  138.7014  166.1261 O.2     1  UNL1       -0.3486
     14 N         143.0970  139.1765  167.4540 N.ar    1  UNL1       -0.0768
     15 C         142.0659  140.2363  167.2016 C.ar    1  UNL1        0.1270
     16 C         141.9398  140.4162  165.7178 C.ar    1  UNL1        0.1340
     17 C         141.2963  140.9847  168.2491 C.ar    1  UNL1        0.0209
     18 C         141.6801  142.3918  168.5997 C.ar    1  UNL1        0.0016
     19 C         140.9104  143.1403  169.6473 C.ar    1  UNL1        0.0000
     20 C         139.7570  142.4816  170.3442 C.ar    1  UNL1        0.0000
     21 C         139.3732  141.0746  169.9937 C.ar    1  UNL1        0.0000
     22 C         140.1428  140.3261  168.9462 C.ar    1  UNL1        0.0016
     23 C         141.0217  141.3761  165.0210 C.3     1  UNL1        0.4232
     24 F         140.1036  142.3362  164.3242 F       1  UNL1       -0.1657
     25 F         139.8792  140.4233  165.2135 F       1  UNL1       -0.1657
     26 F         142.1641  142.3289  164.8285 F       1  UNL1       -0.1657
     27 C         140.0261  137.2148  156.1069 C.3     1  UNL1        0.1486
     28 O         138.5604  136.8959  156.0941 O.3     1  UNL1       -0.3786
     29 H         138.1990  137.0002  156.9882 H       1  UNL1        0.2108
     30 C         140.8236  137.1285  154.8394 C.3     1  UNL1        0.1063
     31 C         142.2441  133.4231  154.7893 C.3     1  UNL1        0.0216
     32 C         142.2067  133.1251  153.3197 C.3     1  UNL1        0.0032
     33 C         141.7082  134.1615  152.3567 C.3     1  UNL1        0.0174
     34 C         141.2472  135.4959  152.8632 C.3     1  UNL1        0.0722
     35 N         141.2846  135.7940  154.3328 N.3     1  UNL1       -0.2704
     36 C         141.7831  134.7576  155.2958 C.3     1  UNL1        0.0725
     37 C         142.7426  132.3867  155.7523 C.3     1  UNL1        0.0431
     38 O         145.2619  131.8361  156.0684 O.co2   1  UNL1       -0.5492
     39 C         144.0375  132.5992  156.4789 C.2     1  UNL1        0.0504
     40 O         144.1080  133.5749  157.6161 O.co2   1  UNL1       -0.5492
@<TRIPOS>UNITY_ATOM_ATTR
38 1
charge -1
@<TRIPOS>BOND
     1    38    39   ar
     2    39    40   ar
     3    39    37    1
     4    31    37    1
     5    31    32    1
     6    32    33    1
     7    33    34    1
     8    34    35    1
     9    35    30    1
    10    30    27    1
    11    27    28    1
    12    27     1    1
    13     1     2   ar
    14     2     3   ar
    15     3     4   ar
    16     4     7    1
    17     7     8   ar
    18     8     9   ar
    19     9    10   ar
    20    10    12    1
    21    12    13   ar
    22    13    14   ar
    23    14    15   ar
    24    15    17    1
    25    17    18   ar
    26    18    19   ar
    27    19    20   ar
    28    20    21   ar
    29    21    22   ar
    30    15    16   ar
    31    16    23    1
    32    23    24    1
    33    23    25    1
    34    23    26    1
    35    10    11   ar
    36     4     5   ar
    37     5     6   ar
    38    35    36    1
    39    36    31    1
    40     6     1   ar
    41    11     7   ar
    42    16    12   ar
    43    22    17   ar
    44    28    29    1
