@<TRIPOS>MOLECULE
*****
 38 41 0 0 0
SMALL
GASTEIGER

@<TRIPOS>ATOM
      1 C         137.8106  140.4213  161.9027 C.3     1  UNL1        0.2722
      2 N         139.4900  142.3282  161.3609 N.am    1  UNL1       -0.2651
      3 C         138.4785  141.3193  160.9039 C.2     1  UNL1        0.2701
      4 O         138.1348  141.2083  159.4480 O.2     1  UNL1       -0.2707
      5 H         139.7155  142.4010  162.3165 H       1  UNL1        0.1564
      6 C         142.1614  145.9201  157.3658 C.3     1  UNL1        0.0538
      7 C         141.4936  145.0221  158.3646 C.ar    1  UNL1        0.0786
      8 C         140.3805  145.5495  159.2208 C.ar    1  UNL1        0.1150
      9 N         139.7127  144.6515  160.2196 N.ar    1  UNL1       -0.2262
     10 C         140.1578  143.2262  160.3622 C.ar    1  UNL1        0.1536
     11 C         141.2708  142.6988  159.5060 C.ar    1  UNL1        0.1328
     12 N         141.9387  143.5968  158.5071 N.ar    1  UNL1       -0.2436
     13 C         137.7782  138.9391  161.6748 C.3     1  UNL1        0.1951
     14 O         138.7710  138.0521  162.3658 O.3     1  UNL1       -0.3493
     15 C         140.2040  138.0424  161.9224 C.3     1  UNL1        0.1446
     16 C         140.5539  138.3990  160.5081 C.3     1  UNL1        0.0347
     17 C         141.2871  137.6763  162.8934 C.3     1  UNL1        0.1666
     18 O         141.2509  136.3493  163.5918 O.3     1  UNL1       -0.3795
     19 H         140.4837  136.3166  164.1844 H       1  UNL1        0.2105
     20 O         137.1752  141.0056  163.1295 O.3     1  UNL1       -0.4517
     21 C         137.9927  141.8350  164.0749 C.ar    1  UNL1        0.2312
     22 N         137.9591  143.3316  163.9810 N.ar    1  UNL1       -0.1892
     23 C         138.7765  144.1610  164.9264 C.ar    1  UNL1        0.2029
     24 N         139.6277  143.4936  165.9657 N.ar    1  UNL1       -0.2046
     25 C         139.6614  141.9970  166.0596 C.ar    1  UNL1        0.1715
     26 C         138.8439  141.1677  165.1142 C.ar    1  UNL1        0.1098
     27 C         139.0772  139.7231  165.4443 C.ar    1  UNL1        0.1283
     28 N         140.0388  139.6597  166.5937 N.ar    1  UNL1       -0.1619
     29 N         140.3999  141.0650  166.9740 N.ar    1  UNL1       -0.2105
     30 C         141.3353  141.4677  168.0753 C.ar    1  UNL1        0.1045
     31 C         142.6641  142.0798  167.7445 C.ar    1  UNL1        0.0760
     32 CL        143.0577  142.2891  166.3122 Cl      1  UNL1       -0.0807
     33 C         143.5995  142.4825  168.8458 C.ar    1  UNL1        0.0130
     34 C         143.2060  142.2731  170.2781 C.ar    1  UNL1        0.0017
     35 C         141.8771  141.6611  170.6089 C.ar    1  UNL1        0.0119
     36 C         140.9418  141.2584  169.5076 C.ar    1  UNL1        0.0870
     37 C         139.6129  140.6463  169.8385 C.1     1  UNL1        0.1020
     38 N         138.2841  140.0343  170.1694 N.1     1  UNL1       -0.1908
@<TRIPOS>BOND
     1     6     7    1
     2     7     8   ar
     3     8     9   ar
     4     9    10   ar
     5    10     2    1
     6     2     3   am
     7     3     4    2
     8     3     1    1
     9     1    13    1
    10    13    14    1
    11    14    15    1
    12    15    16    1
    13    15    17    1
    14    17    18    1
    15     1    20    1
    16    20    21    1
    17    21    22   ar
    18    22    23   ar
    19    23    24   ar
    20    24    25   ar
    21    25    26   ar
    22    26    27   ar
    23    27    28   ar
    24    28    29   ar
    25    29    30    1
    26    30    31   ar
    27    31    32    1
    28    31    33   ar
    29    33    34   ar
    30    34    35   ar
    31    35    36   ar
    32    36    37    1
    33    37    38    3
    34    10    11   ar
    35    11    12   ar
    36    12     7   ar
    37    26    21   ar
    38    36    30   ar
    39    29    25   ar
    40     2     5    1
    41    18    19    1
@<TRIPOS>MOLECULE
*****
 38 41 0 0 0
SMALL
GASTEIGER

@<TRIPOS>ATOM
      1 C         137.9544  140.2108  161.9567 C.3     1  UNL1        0.2722
      2 N         139.6163  142.1236  161.3829 N.am    1  UNL1       -0.2651
      3 C         138.5677  141.1412  160.9526 C.2     1  UNL1        0.2701
      4 O         138.1323  141.0892  159.5181 O.2     1  UNL1       -0.2707
      5 H         139.9021  142.1577  162.3244 H       1  UNL1        0.1564
      6 C         142.0694  145.8453  157.3666 C.3     1  UNL1        0.0538
      7 C         141.4562  144.9148  158.3707 C.ar    1  UNL1        0.0786
      8 C         140.2846  145.3647  159.1924 C.ar    1  UNL1        0.1150
      9 N         139.6714  144.4343  160.1965 N.ar    1  UNL1       -0.2262
     10 C         140.2296  143.0540  160.3789 C.ar    1  UNL1        0.1536
     11 C         141.4011  142.6041  159.5572 C.ar    1  UNL1        0.1328
     12 N         142.0144  143.5346  158.5531 N.ar    1  UNL1       -0.2436
     13 C         137.9870  138.7293  161.7243 C.3     1  UNL1        0.1951
     14 O         138.6343  137.8261  162.7319 O.3     1  UNL1       -0.3493
     15 C         140.1262  137.6716  162.7516 C.3     1  UNL1        0.1446
     16 C         140.8104  137.1532  163.9818 C.3     1  UNL1        0.0347
     17 C         140.9339  138.0354  161.5412 C.3     1  UNL1        0.1666
     18 O         142.1670  137.2526  161.1994 O.3     1  UNL1       -0.3795
     19 H         142.8367  137.3874  161.8880 H       1  UNL1        0.2105
     20 O         137.3085  140.7619  163.1933 O.3     1  UNL1       -0.4517
     21 C         138.0846  141.6642  164.1063 C.ar    1  UNL1        0.2312
     22 N         138.0745  143.1472  163.8814 N.ar    1  UNL1       -0.1892
     23 C         138.8506  144.0495  164.7944 C.ar    1  UNL1        0.2029
     24 N         139.6368  143.4688  165.9322 N.ar    1  UNL1       -0.2046
     25 C         139.6470  141.9858  166.1571 C.ar    1  UNL1        0.1715
     26 C         138.8709  141.0835  165.2441 C.ar    1  UNL1        0.1098
     27 C         139.0683  139.6714  165.7102 C.ar    1  UNL1        0.1283
     28 N         139.9664  139.7011  166.9112 N.ar    1  UNL1       -0.1619
     29 N         140.3240  141.1314  167.1874 N.ar    1  UNL1       -0.2105
     30 C         141.2042  141.6214  168.2988 C.ar    1  UNL1        0.1045
     31 C         140.6763  141.6844  169.7014 C.ar    1  UNL1        0.0760
     32 CL        139.2681  141.2574  169.9926 Cl      1  UNL1       -0.0807
     33 C         141.5565  142.1743  170.8127 C.ar    1  UNL1        0.0130
     34 C         142.9647  142.6013  170.5216 C.ar    1  UNL1        0.0017
     35 C         143.4926  142.5383  169.1190 C.ar    1  UNL1        0.0119
     36 C         142.6124  142.0483  168.0076 C.ar    1  UNL1        0.0870
     37 C         143.1404  141.9853  166.6050 C.1     1  UNL1        0.1020
     38 N         143.6683  141.9223  165.2024 N.1     1  UNL1       -0.1908
@<TRIPOS>BOND
     1     6     7    1
     2     7     8   ar
     3     8     9   ar
     4     9    10   ar
     5    10     2    1
     6     2     3   am
     7     3     4    2
     8     3     1    1
     9     1    13    1
    10    13    14    1
    11    14    15    1
    12    15    16    1
    13    15    17    1
    14    17    18    1
    15     1    20    1
    16    20    21    1
    17    21    22   ar
    18    22    23   ar
    19    23    24   ar
    20    24    25   ar
    21    25    26   ar
    22    26    27   ar
    23    27    28   ar
    24    28    29   ar
    25    29    30    1
    26    30    31   ar
    27    31    32    1
    28    31    33   ar
    29    33    34   ar
    30    34    35   ar
    31    35    36   ar
    32    36    37    1
    33    37    38    3
    34    10    11   ar
    35    11    12   ar
    36    12     7   ar
    37    26    21   ar
    38    36    30   ar
    39    29    25   ar
    40     2     5    1
    41    18    19    1
@<TRIPOS>MOLECULE
*****
 38 41 0 0 0
SMALL
GASTEIGER

@<TRIPOS>ATOM
      1 C         139.4036  139.4699  159.5207 C.3     1  UNL1        0.2722
      2 N         137.5509  140.7387  158.2138 N.am    1  UNL1       -0.2651
      3 C         138.6429  139.7110  158.2505 C.2     1  UNL1        0.2701
      4 O         138.9742  138.9243  157.0171 O.2     1  UNL1       -0.2707
      5 H         137.3335  141.2550  159.0234 H       1  UNL1        0.1564
      6 C         134.5081  141.7030  153.1334 C.3     1  UNL1        0.0538
      7 C         135.2688  141.4620  154.4035 C.ar    1  UNL1        0.0786
      8 C         134.7017  140.5574  155.4573 C.ar    1  UNL1        0.1150
      9 N         135.4624  140.3163  156.7273 N.ar    1  UNL1       -0.2262
     10 C         136.7902  140.9798  156.9438 C.ar    1  UNL1        0.1536
     11 C         137.3573  141.8843  155.8901 C.ar    1  UNL1        0.1328
     12 N         136.5965  142.1254  154.6199 N.ar    1  UNL1       -0.2436
     13 C         140.8659  139.7963  159.5926 C.3     1  UNL1        0.1951
     14 O         141.3222  141.2216  159.4904 O.3     1  UNL1       -0.3493
     15 C         140.6441  142.2861  160.3011 C.3     1  UNL1        0.1446
     16 C         140.9699  142.4418  161.7570 C.3     1  UNL1        0.0347
     17 C         139.6401  143.1948  159.6558 C.3     1  UNL1        0.1666
     18 O         138.1895  143.0905  160.0227 O.3     1  UNL1       -0.3795
     19 H         137.8431  142.2327  159.7310 H       1  UNL1        0.2105
     20 O         138.7020  138.9025  160.7189 O.3     1  UNL1       -0.4517
     21 C         138.4788  139.7568  161.9316 C.ar    1  UNL1        0.2312
     22 N         137.4845  140.8789  161.8859 N.ar    1  UNL1       -0.1892
     23 C         137.2613  141.7330  163.0985 C.ar    1  UNL1        0.2029
     24 N         138.0325  141.4651  164.3569 N.ar    1  UNL1       -0.2046
     25 C         139.0268  140.3430  164.4026 C.ar    1  UNL1        0.1715
     26 C         139.2500  139.4888  163.1900 C.ar    1  UNL1        0.1098
     27 C         140.2884  138.4615  163.5313 C.ar    1  UNL1        0.1283
     28 N         140.7070  138.6808  164.9549 N.ar    1  UNL1       -0.1619
     29 N         139.9273  139.8436  165.4934 N.ar    1  UNL1       -0.2105
     30 C         140.0300  140.4080  166.8793 C.ar    1  UNL1        0.1045
     31 C         141.0585  141.4552  167.1885 C.ar    1  UNL1        0.0760
     32 CL        141.9844  141.9380  166.1116 Cl      1  UNL1       -0.0807
     33 C         141.1613  142.0195  168.5744 C.ar    1  UNL1        0.0130
     34 C         140.2354  141.5368  169.6514 C.ar    1  UNL1        0.0017
     35 C         139.2069  140.4896  169.3422 C.ar    1  UNL1        0.0119
     36 C         139.1042  139.9252  167.9563 C.ar    1  UNL1        0.0870
     37 C         138.0756  138.8781  167.6472 C.1     1  UNL1        0.1020
     38 N         137.0471  137.8310  167.3382 N.1     1  UNL1       -0.1908
@<TRIPOS>BOND
     1     6     7    1
     2     7     8   ar
     3     8     9   ar
     4     9    10   ar
     5    10     2    1
     6     2     3   am
     7     3     4    2
     8     3     1    1
     9     1    13    1
    10    13    14    1
    11    14    15    1
    12    15    16    1
    13    15    17    1
    14    17    18    1
    15     1    20    1
    16    20    21    1
    17    21    22   ar
    18    22    23   ar
    19    23    24   ar
    20    24    25   ar
    21    25    26   ar
    22    26    27   ar
    23    27    28   ar
    24    28    29   ar
    25    29    30    1
    26    30    31   ar
    27    31    32    1
    28    31    33   ar
    29    33    34   ar
    30    34    35   ar
    31    35    36   ar
    32    36    37    1
    33    37    38    3
    34    10    11   ar
    35    11    12   ar
    36    12     7   ar
    37    26    21   ar
    38    36    30   ar
    39    29    25   ar
    40     2     5    1
    41    18    19    1
@<TRIPOS>MOLECULE
*****
 38 41 0 0 0
SMALL
GASTEIGER

@<TRIPOS>ATOM
      1 C         142.3044  138.0731  161.9226 C.3     1  UNL1        0.2722
      2 N         140.4428  139.6958  161.1153 N.am    1  UNL1       -0.2651
      3 C         141.4725  138.6474  160.8143 C.2     1  UNL1        0.2701
      4 O         141.6703  138.1733  159.4050 O.2     1  UNL1       -0.2707
      5 H         140.3130  140.0069  162.0403 H       1  UNL1        0.1564
      6 C         137.1152  141.9928  156.6825 C.3     1  UNL1        0.0538
      7 C         137.9471  141.4185  157.7907 C.ar    1  UNL1        0.0786
      8 C         139.3229  141.9562  158.0517 C.ar    1  UNL1        0.1150
      9 N         140.1548  141.3820  159.1599 N.ar    1  UNL1       -0.2262
     10 C         139.6109  140.2700  160.0071 C.ar    1  UNL1        0.1536
     11 C         138.2352  139.7323  159.7461 C.ar    1  UNL1        0.1328
     12 N         137.4032  140.3066  158.6379 N.ar    1  UNL1       -0.2436
     13 C         143.7922  138.2640  161.9198 C.3     1  UNL1        0.1951
     14 O         144.4009  139.4022  161.1556 O.3     1  UNL1       -0.3493
     15 C         144.4380  140.7753  161.7583 C.3     1  UNL1        0.1446
     16 C         143.7856  141.9240  161.0478 C.3     1  UNL1        0.0347
     17 C         145.1276  140.9997  163.0713 C.3     1  UNL1        0.1666
     18 O         146.3340  141.8881  163.1426 O.3     1  UNL1       -0.3795
     19 H         147.0620  141.4855  162.6437 H       1  UNL1        0.2105
     20 O         141.6484  137.3081  163.0336 O.3     1  UNL1       -0.4517
     21 C         140.8333  138.0324  164.0637 C.ar    1  UNL1        0.2312
     22 N         139.3361  138.0307  163.9722 N.ar    1  UNL1       -0.1892
     23 C         138.5211  138.7550  165.0023 C.ar    1  UNL1        0.2029
     24 N         139.2032  139.4809  166.1238 N.ar    1  UNL1       -0.2046
     25 C         140.7003  139.4826  166.2152 C.ar    1  UNL1        0.1715
     26 C         141.5154  138.7583  165.1851 C.ar    1  UNL1        0.1098
     27 C         142.9640  138.9340  165.5328 C.ar    1  UNL1        0.1283
     28 N         143.0441  139.7669  166.7777 N.ar    1  UNL1       -0.1619
     29 N         141.6451  140.1059  167.1995 N.ar    1  UNL1       -0.2105
     30 C         141.2587  140.9246  168.3955 C.ar    1  UNL1        0.1045
     31 C         141.4585  140.3751  169.7768 C.ar    1  UNL1        0.0760
     32 CL        142.0447  139.0068  169.9622 Cl      1  UNL1       -0.0807
     33 C         141.0721  141.1937  170.9728 C.ar    1  UNL1        0.0130
     34 C         140.4859  142.5619  170.7876 C.ar    1  UNL1        0.0017
     35 C         140.2861  143.1114  169.4063 C.ar    1  UNL1        0.0119
     36 C         140.6725  142.2928  168.2102 C.ar    1  UNL1        0.0870
     37 C         140.4728  142.8424  166.8289 C.1     1  UNL1        0.1020
     38 N         140.2730  143.3920  165.4476 N.1     1  UNL1       -0.1908
@<TRIPOS>BOND
     1     6     7    1
     2     7     8   ar
     3     8     9   ar
     4     9    10   ar
     5    10     2    1
     6     2     3   am
     7     3     4    2
     8     3     1    1
     9     1    13    1
    10    13    14    1
    11    14    15    1
    12    15    16    1
    13    15    17    1
    14    17    18    1
    15     1    20    1
    16    20    21    1
    17    21    22   ar
    18    22    23   ar
    19    23    24   ar
    20    24    25   ar
    21    25    26   ar
    22    26    27   ar
    23    27    28   ar
    24    28    29   ar
    25    29    30    1
    26    30    31   ar
    27    31    32    1
    28    31    33   ar
    29    33    34   ar
    30    34    35   ar
    31    35    36   ar
    32    36    37    1
    33    37    38    3
    34    10    11   ar
    35    11    12   ar
    36    12     7   ar
    37    26    21   ar
    38    36    30   ar
    39    29    25   ar
    40     2     5    1
    41    18    19    1
@<TRIPOS>MOLECULE
*****
 38 41 0 0 0
SMALL
GASTEIGER

@<TRIPOS>ATOM
      1 C         141.0791  144.4992  159.3882 C.3     1  UNL1        0.2722
      2 N         139.8855  145.5902  157.3547 N.am    1  UNL1       -0.2651
      3 C         141.1018  145.4394  158.2196 C.2     1  UNL1        0.2701
      4 O         142.3406  146.2287  157.9159 O.2     1  UNL1       -0.2707
      5 H         139.0725  145.0721  157.5540 H       1  UNL1        0.1564
      6 C         139.9760  149.3508  152.6803 C.3     1  UNL1        0.0538
      7 C         139.9534  148.4106  153.8489 C.ar    1  UNL1        0.0786
      8 C         139.1494  148.7499  155.0690 C.ar    1  UNL1        0.1150
      9 N         139.1268  147.8097  156.2376 N.ar    1  UNL1       -0.2262
     10 C         139.9081  146.5303  156.1861 C.ar    1  UNL1        0.1536
     11 C         140.7121  146.1911  154.9661 C.ar    1  UNL1        0.1328
     12 N         140.7347  147.1313  153.7974 N.ar    1  UNL1       -0.2436
     13 C         140.1426  143.3274  159.3900 C.3     1  UNL1        0.1951
     14 O         138.8325  143.4155  160.1152 O.3     1  UNL1       -0.3493
     15 C         138.5960  142.5828  161.3403 C.3     1  UNL1        0.1446
     16 C         139.2388  141.2333  161.4654 C.3     1  UNL1        0.0347
     17 C         137.7166  143.0995  162.4401 C.3     1  UNL1        0.1666
     18 O         137.4456  144.5703  162.5552 O.3     1  UNL1       -0.3795
     19 H         138.2688  145.0346  162.7738 H       1  UNL1        0.2105
     20 O         141.9929  144.7308  160.5549 O.3     1  UNL1       -0.4517
     21 C         142.3344  143.5976  161.4767 C.ar    1  UNL1        0.2312
     22 N         143.2454  142.5007  161.0112 N.ar    1  UNL1       -0.1892
     23 C         143.5868  141.3676  161.9329 C.ar    1  UNL1        0.2029
     24 N         143.0171  141.3316  163.3201 N.ar    1  UNL1       -0.2046
     25 C         142.1061  142.4285  163.7855 C.ar    1  UNL1        0.1715
     26 C         141.7647  143.5615  162.8638 C.ar    1  UNL1        0.1098
     27 C         140.8461  144.4943  163.5962 C.ar    1  UNL1        0.1283
     28 N         140.6199  143.9376  164.9706 N.ar    1  UNL1       -0.1619
     29 N         141.3986  142.6609  165.0876 N.ar    1  UNL1       -0.2105
     30 C         141.4591  141.7726  166.2947 C.ar    1  UNL1        0.1045
     31 C         142.6414  141.8379  167.2155 C.ar    1  UNL1        0.0760
     32 CL        143.7632  142.7916  166.9292 Cl      1  UNL1       -0.0807
     33 C         142.7019  140.9495  168.4226 C.ar    1  UNL1        0.0130
     34 C         141.5801  139.9958  168.7090 C.ar    1  UNL1        0.0017
     35 C         140.3978  139.9305  167.7882 C.ar    1  UNL1        0.0119
     36 C         140.3373  140.8188  166.5811 C.ar    1  UNL1        0.0870
     37 C         139.1550  140.7535  165.6603 C.1     1  UNL1        0.1020
     38 N         137.9726  140.6881  164.7395 N.1     1  UNL1       -0.1908
@<TRIPOS>BOND
     1     6     7    1
     2     7     8   ar
     3     8     9   ar
     4     9    10   ar
     5    10     2    1
     6     2     3   am
     7     3     4    2
     8     3     1    1
     9     1    13    1
    10    13    14    1
    11    14    15    1
    12    15    16    1
    13    15    17    1
    14    17    18    1
    15     1    20    1
    16    20    21    1
    17    21    22   ar
    18    22    23   ar
    19    23    24   ar
    20    24    25   ar
    21    25    26   ar
    22    26    27   ar
    23    27    28   ar
    24    28    29   ar
    25    29    30    1
    26    30    31   ar
    27    31    32    1
    28    31    33   ar
    29    33    34   ar
    30    34    35   ar
    31    35    36   ar
    32    36    37    1
    33    37    38    3
    34    10    11   ar
    35    11    12   ar
    36    12     7   ar
    37    26    21   ar
    38    36    30   ar
    39    29    25   ar
    40     2     5    1
    41    18    19    1
@<TRIPOS>MOLECULE
*****
 38 41 0 0 0
SMALL
GASTEIGER

@<TRIPOS>ATOM
      1 C         141.2033  139.3070  159.4186 C.3     1  UNL1        0.2722
      2 N         142.4337  137.6972  157.7922 N.am    1  UNL1       -0.2651
      3 C         141.1602  138.2971  158.3103 C.2     1  UNL1        0.2701
      4 O         139.8436  137.8870  157.7201 O.2     1  UNL1       -0.2707
      5 H         143.2978  137.9664  158.1796 H       1  UNL1        0.1564
      6 C         142.2613  133.6577  153.3592 C.3     1  UNL1        0.0538
      7 C         142.3044  134.6676  154.4674 C.ar    1  UNL1        0.0786
      8 C         141.7253  136.0355  154.2586 C.ar    1  UNL1        0.1150
      9 N         141.7684  137.0454  155.3669 N.ar    1  UNL1       -0.2262
     10 C         142.3906  136.6874  156.6840 C.ar    1  UNL1        0.1536
     11 C         142.9696  135.3195  156.8928 C.ar    1  UNL1        0.1328
     12 N         142.9265  134.3096  155.7846 N.ar    1  UNL1       -0.2436
     13 C         142.3169  140.3103  159.4761 C.3     1  UNL1        0.1951
     14 O         143.7142  139.8628  159.7880 O.3     1  UNL1       -0.3493
     15 C         144.0707  139.4323  161.1800 C.3     1  UNL1        0.1446
     16 C         144.4719  140.4546  162.2017 C.3     1  UNL1        0.0347
     17 C         144.0261  137.9794  161.5503 C.3     1  UNL1        0.1666
     18 O         143.3629  136.9925  160.6359 O.3     1  UNL1       -0.3795
     19 H         142.4119  137.1787  160.5943 H       1  UNL1        0.2105
     20 O         140.1329  139.3135  160.4694 O.3     1  UNL1       -0.4517
     21 C         140.4594  138.9046  161.8752 C.ar    1  UNL1        0.2312
     22 N         140.7285  137.4638  162.1939 N.ar    1  UNL1       -0.1892
     23 C         141.0550  137.0550  163.5996 C.ar    1  UNL1        0.2029
     24 N         141.1123  138.0869  164.6867 N.ar    1  UNL1       -0.2046
     25 C         140.8432  139.5277  164.3681 C.ar    1  UNL1        0.1715
     26 C         140.5167  139.9366  162.9623 C.ar    1  UNL1        0.1098
     27 C         140.2995  141.4208  162.9498 C.ar    1  UNL1        0.1283
     28 N         140.4917  141.9291  164.3478 N.ar    1  UNL1       -0.1619
     29 N         140.8277  140.7592  165.2244 N.ar    1  UNL1       -0.2105
     30 C         141.1005  140.8114  166.6984 C.ar    1  UNL1        0.1045
     31 C         142.3400  141.4848  167.2085 C.ar    1  UNL1        0.0760
     32 CL        143.3069  142.1059  166.2444 Cl      1  UNL1       -0.0807
     33 C         142.6127  141.5371  168.6825 C.ar    1  UNL1        0.0130
     34 C         141.6459  140.9160  169.6466 C.ar    1  UNL1        0.0017
     35 C         140.4063  140.2427  169.1366 C.ar    1  UNL1        0.0119
     36 C         140.1336  140.1904  167.6625 C.ar    1  UNL1        0.0870
     37 C         138.8941  139.5170  167.1526 C.1     1  UNL1        0.1020
     38 N         137.6545  138.8436  166.6426 N.1     1  UNL1       -0.1908
@<TRIPOS>BOND
     1     6     7    1
     2     7     8   ar
     3     8     9   ar
     4     9    10   ar
     5    10     2    1
     6     2     3   am
     7     3     4    2
     8     3     1    1
     9     1    13    1
    10    13    14    1
    11    14    15    1
    12    15    16    1
    13    15    17    1
    14    17    18    1
    15     1    20    1
    16    20    21    1
    17    21    22   ar
    18    22    23   ar
    19    23    24   ar
    20    24    25   ar
    21    25    26   ar
    22    26    27   ar
    23    27    28   ar
    24    28    29   ar
    25    29    30    1
    26    30    31   ar
    27    31    32    1
    28    31    33   ar
    29    33    34   ar
    30    34    35   ar
    31    35    36   ar
    32    36    37    1
    33    37    38    3
    34    10    11   ar
    35    11    12   ar
    36    12     7   ar
    37    26    21   ar
    38    36    30   ar
    39    29    25   ar
    40     2     5    1
    41    18    19    1
@<TRIPOS>MOLECULE
*****
 38 41 0 0 0
SMALL
GASTEIGER

@<TRIPOS>ATOM
      1 C         141.8511  143.9601  161.4414 C.3     1  UNL1        0.2722
      2 N         141.5737  145.5021  159.3688 N.am    1  UNL1       -0.2651
      3 C         141.6486  144.1275  159.9645 C.2     1  UNL1        0.2701
      4 O         141.5211  142.9203  159.0835 O.2     1  UNL1       -0.2707
      5 H         141.6575  146.2944  159.9471 H       1  UNL1        0.1564
      6 C         140.7639  146.1717  153.4616 C.3     1  UNL1        0.0538
      7 C         140.9663  146.0043  154.9384 C.ar    1  UNL1        0.0786
      8 C         142.2209  145.3650  155.4557 C.ar    1  UNL1        0.1150
      9 N         142.4233  145.1976  156.9325 N.ar    1  UNL1       -0.2262
     10 C         141.3713  145.6694  157.8920 C.ar    1  UNL1        0.1536
     11 C         140.1168  146.3086  157.3747 C.ar    1  UNL1        0.1328
     12 N         139.9143  146.4761  155.8979 N.ar    1  UNL1       -0.2436
     13 C         141.5258  145.0877  162.3755 C.3     1  UNL1        0.1951
     14 O         140.1049  145.5394  162.5397 O.3     1  UNL1       -0.3493
     15 C         139.1370  144.7013  163.3213 C.3     1  UNL1        0.1446
     16 C         139.1094  144.7871  164.8186 C.3     1  UNL1        0.0347
     17 C         138.1967  143.7773  162.6057 C.3     1  UNL1        0.1666
     18 O         138.3010  143.6051  161.1193 O.3     1  UNL1       -0.3795
     19 H         138.0740  144.4397  160.6803 H       1  UNL1        0.2105
     20 O         142.3789  142.6651  161.9840 O.3     1  UNL1       -0.4517
     21 C         141.6370  141.9511  163.0749 C.ar    1  UNL1        0.2312
     22 N         140.4546  141.0913  162.7393 N.ar    1  UNL1       -0.1892
     23 C         139.7128  140.3773  163.8301 C.ar    1  UNL1        0.2029
     24 N         140.1533  140.5232  165.2565 N.ar    1  UNL1       -0.2046
     25 C         141.3357  141.3830  165.5921 C.ar    1  UNL1        0.1715
     26 C         142.0775  142.0970  164.5013 C.ar    1  UNL1        0.1098
     27 C         143.1979  142.8699  165.1317 C.ar    1  UNL1        0.1283
     28 N         143.1485  142.6336  166.6121 N.ar    1  UNL1       -0.1619
     29 N         141.9975  141.7146  166.8967 N.ar    1  UNL1       -0.2105
     30 C         141.5815  141.2150  168.2484 C.ar    1  UNL1        0.1045
     31 C         140.7063  142.0617  169.1243 C.ar    1  UNL1        0.0760
     32 CL        140.2471  143.4080  168.6484 Cl      1  UNL1       -0.0807
     33 C         140.2903  141.5621  170.4761 C.ar    1  UNL1        0.0130
     34 C         140.7495  140.2157  170.9520 C.ar    1  UNL1        0.0017
     35 C         141.6247  139.3691  170.0762 C.ar    1  UNL1        0.0119
     36 C         142.0407  139.8687  168.7244 C.ar    1  UNL1        0.0870
     37 C         142.9159  139.0220  167.8486 C.1     1  UNL1        0.1020
     38 N         143.7911  138.1752  166.9728 N.1     1  UNL1       -0.1908
@<TRIPOS>BOND
     1     6     7    1
     2     7     8   ar
     3     8     9   ar
     4     9    10   ar
     5    10     2    1
     6     2     3   am
     7     3     4    2
     8     3     1    1
     9     1    13    1
    10    13    14    1
    11    14    15    1
    12    15    16    1
    13    15    17    1
    14    17    18    1
    15     1    20    1
    16    20    21    1
    17    21    22   ar
    18    22    23   ar
    19    23    24   ar
    20    24    25   ar
    21    25    26   ar
    22    26    27   ar
    23    27    28   ar
    24    28    29   ar
    25    29    30    1
    26    30    31   ar
    27    31    32    1
    28    31    33   ar
    29    33    34   ar
    30    34    35   ar
    31    35    36   ar
    32    36    37    1
    33    37    38    3
    34    10    11   ar
    35    11    12   ar
    36    12     7   ar
    37    26    21   ar
    38    36    30   ar
    39    29    25   ar
    40     2     5    1
    41    18    19    1
@<TRIPOS>MOLECULE
*****
 38 41 0 0 0
SMALL
GASTEIGER

@<TRIPOS>ATOM
      1 C         141.0624  143.9473  159.1270 C.3     1  UNL1        0.2722
      2 N         139.8865  145.1696  157.1588 N.am    1  UNL1       -0.2651
      3 C         141.0528  145.0333  158.0923 C.2     1  UNL1        0.2701
      4 O         142.2094  145.9830  157.9910 O.2     1  UNL1       -0.2707
      5 H         139.1274  144.5462  157.2253 H       1  UNL1        0.1564
      6 C         139.8481  149.5133  153.0200 C.3     1  UNL1        0.0538
      7 C         139.8577  148.4274  154.0547 C.ar    1  UNL1        0.0786
      8 C         139.0383  148.5732  155.3027 C.ar    1  UNL1        0.1150
      9 N         139.0479  147.4873  156.3374 N.ar    1  UNL1       -0.2262
     10 C         139.8769  146.2555  156.1242 C.ar    1  UNL1        0.1536
     11 C         140.6963  146.1096  154.8763 C.ar    1  UNL1        0.1328
     12 N         140.6867  147.1956  153.8415 N.ar    1  UNL1       -0.2436
     13 C         139.8196  143.1490  159.3880 C.3     1  UNL1        0.1951
     14 O         138.7502  143.6979  160.2853 O.3     1  UNL1       -0.3493
     15 C         138.5750  143.1446  161.6686 C.3     1  UNL1        0.1446
     16 C         138.7702  144.0325  162.8617 C.3     1  UNL1        0.0347
     17 C         138.2045  141.7036  161.8586 C.3     1  UNL1        0.1666
     18 O         136.9047  141.3437  162.5151 O.3     1  UNL1       -0.3795
     19 H         136.9200  141.6310  163.4415 H       1  UNL1        0.2105
     20 O         142.3148  143.6597  159.9008 O.3     1  UNL1       -0.4517
     21 C         142.2901  143.6755  161.4005 C.ar    1  UNL1        0.2312
     22 N         142.5329  144.9571  162.1412 N.ar    1  UNL1       -0.1892
     23 C         142.5082  144.9728  163.6408 C.ar    1  UNL1        0.2029
     24 N         142.2408  143.7070  164.3999 N.ar    1  UNL1       -0.2046
     25 C         141.9981  142.4254  163.6593 C.ar    1  UNL1        0.1715
     26 C         142.0227  142.4096  162.1596 C.ar    1  UNL1        0.1098
     27 C         141.7503  141.0059  161.7062 C.ar    1  UNL1        0.1283
     28 N         141.5572  140.1542  162.9257 N.ar    1  UNL1       -0.1619
     29 N         141.7104  141.0315  164.1328 N.ar    1  UNL1       -0.2105
     30 C         141.5959  140.5920  165.5623 C.ar    1  UNL1        0.1045
     31 C         140.3577  140.9086  166.3475 C.ar    1  UNL1        0.0760
     32 CL        139.2338  141.6648  165.7031 Cl      1  UNL1       -0.0807
     33 C         140.2432  140.4691  167.7771 C.ar    1  UNL1        0.0130
     34 C         141.3670  139.7130  168.4216 C.ar    1  UNL1        0.0017
     35 C         142.6052  139.3964  167.6364 C.ar    1  UNL1        0.0119
     36 C         142.7197  139.8358  166.2068 C.ar    1  UNL1        0.0870
     37 C         143.9579  139.5192  165.4217 C.1     1  UNL1        0.1020
     38 N         145.1962  139.2025  164.6366 N.1     1  UNL1       -0.1908
@<TRIPOS>BOND
     1     6     7    1
     2     7     8   ar
     3     8     9   ar
     4     9    10   ar
     5    10     2    1
     6     2     3   am
     7     3     4    2
     8     3     1    1
     9     1    13    1
    10    13    14    1
    11    14    15    1
    12    15    16    1
    13    15    17    1
    14    17    18    1
    15     1    20    1
    16    20    21    1
    17    21    22   ar
    18    22    23   ar
    19    23    24   ar
    20    24    25   ar
    21    25    26   ar
    22    26    27   ar
    23    27    28   ar
    24    28    29   ar
    25    29    30    1
    26    30    31   ar
    27    31    32    1
    28    31    33   ar
    29    33    34   ar
    30    34    35   ar
    31    35    36   ar
    32    36    37    1
    33    37    38    3
    34    10    11   ar
    35    11    12   ar
    36    12     7   ar
    37    26    21   ar
    38    36    30   ar
    39    29    25   ar
    40     2     5    1
    41    18    19    1
@<TRIPOS>MOLECULE
*****
 38 41 0 0 0
SMALL
GASTEIGER

@<TRIPOS>ATOM
      1 C         139.9376  143.3674  160.2204 C.3     1  UNL1        0.2722
      2 N         141.7899  142.2220  158.8037 N.am    1  UNL1       -0.2651
      3 C         140.4235  142.1942  159.4219 C.2     1  UNL1        0.2701
      4 O         139.5430  140.9933  159.2416 O.2     1  UNL1       -0.2707
      5 H         142.3678  143.0102  158.9220 H       1  UNL1        0.1564
      6 C         143.7335  137.5293  155.6098 C.3     1  UNL1        0.0538
      7 C         143.2476  138.7025  156.4083 C.ar    1  UNL1        0.0786
      8 C         142.6250  139.8768  155.7130 C.ar    1  UNL1        0.1150
      9 N         142.1391  141.0499  156.5115 N.ar    1  UNL1       -0.2262
     10 C         142.2758  141.0488  158.0052 C.ar    1  UNL1        0.1536
     11 C         142.8984  139.8746  158.7005 C.ar    1  UNL1        0.1328
     12 N         143.3843  138.7014  157.9020 N.ar    1  UNL1       -0.2436
     13 C         140.6161  144.6985  160.0865 C.3     1  UNL1        0.1951
     14 O         142.0563  144.8488  160.4777 O.3     1  UNL1       -0.3493
     15 C         142.5203  144.3809  161.8252 C.3     1  UNL1        0.1446
     16 C         142.0662  145.0943  163.0641 C.3     1  UNL1        0.0347
     17 C         143.4384  143.1997  161.9339 C.3     1  UNL1        0.1666
     18 O         144.8876  143.4039  162.2626 O.3     1  UNL1       -0.3795
     19 H         145.3200  143.8794  161.5361 H       1  UNL1        0.2105
     20 O         138.7732  143.2095  161.1528 O.3     1  UNL1       -0.4517
     21 C         138.9718  143.3563  162.6323 C.ar    1  UNL1        0.2312
     22 N         138.3883  144.5346  163.3542 N.ar    1  UNL1       -0.1892
     23 C         138.5870  144.6813  164.8337 C.ar    1  UNL1        0.2029
     24 N         139.3691  143.6497  165.5913 N.ar    1  UNL1       -0.2046
     25 C         139.9526  142.4714  164.8695 C.ar    1  UNL1        0.1715
     26 C         139.7540  142.3247  163.3900 C.ar    1  UNL1        0.1098
     27 C         140.4424  141.0659  162.9524 C.ar    1  UNL1        0.1283
     28 N         141.0666  140.4346  164.1615 N.ar    1  UNL1       -0.1619
     29 N         140.7639  141.3033  165.3463 N.ar    1  UNL1       -0.2105
     30 C         141.1964  141.0486  166.7598 C.ar    1  UNL1        0.1045
     31 C         140.3304  140.2335  167.6739 C.ar    1  UNL1        0.0760
     32 CL        139.0317  139.6730  167.1745 Cl      1  UNL1       -0.0807
     33 C         140.7630  139.9788  169.0874 C.ar    1  UNL1        0.0130
     34 C         142.0616  140.5392  169.5869 C.ar    1  UNL1        0.0017
     35 C         142.9276  141.3543  168.6728 C.ar    1  UNL1        0.0119
     36 C         142.4951  141.6090  167.2593 C.ar    1  UNL1        0.0870
     37 C         143.3611  142.4241  166.3453 C.1     1  UNL1        0.1020
     38 N         144.2272  143.2393  165.4313 N.1     1  UNL1       -0.1908
@<TRIPOS>BOND
     1     6     7    1
     2     7     8   ar
     3     8     9   ar
     4     9    10   ar
     5    10     2    1
     6     2     3   am
     7     3     4    2
     8     3     1    1
     9     1    13    1
    10    13    14    1
    11    14    15    1
    12    15    16    1
    13    15    17    1
    14    17    18    1
    15     1    20    1
    16    20    21    1
    17    21    22   ar
    18    22    23   ar
    19    23    24   ar
    20    24    25   ar
    21    25    26   ar
    22    26    27   ar
    23    27    28   ar
    24    28    29   ar
    25    29    30    1
    26    30    31   ar
    27    31    32    1
    28    31    33   ar
    29    33    34   ar
    30    34    35   ar
    31    35    36   ar
    32    36    37    1
    33    37    38    3
    34    10    11   ar
    35    11    12   ar
    36    12     7   ar
    37    26    21   ar
    38    36    30   ar
    39    29    25   ar
    40     2     5    1
    41    18    19    1
