@<TRIPOS>MOLECULE
*****
 29 31 0 0 0
SMALL
GASTEIGER

@<TRIPOS>ATOM
      1 C         142.3387  135.7155  156.4416 C.ar    1  UNL1        0.0026
      2 C         141.1205  136.1094  155.6601 C.ar    1  UNL1        0.0184
      3 C         140.4862  137.4499  155.8851 C.ar    1  UNL1        0.1070
      4 C         141.0700  138.3965  156.8916 C.ar    1  UNL1        0.0371
      5 C         142.2881  138.0025  157.6731 C.ar    1  UNL1        0.1122
      6 C         142.9225  136.6620  157.4481 C.ar    1  UNL1        0.0188
      7 C         144.8760  130.3534  155.5415 C.3     1  UNL1        0.0310
      8 C         144.2417  131.6939  155.7665 C.ar    1  UNL1       -0.0218
      9 C         144.5423  132.4654  157.0172 C.ar    1  UNL1       -0.0043
     10 C         143.9079  133.8060  157.2423 C.ar    1  UNL1       -0.0003
     11 C         142.9730  134.3749  156.2166 C.ar    1  UNL1        0.0001
     12 C         142.6724  133.6034  154.9658 C.ar    1  UNL1       -0.0003
     13 C         143.3068  132.2629  154.7408 C.ar    1  UNL1       -0.0043
     14 S         139.2679  137.8439  155.1035 S.O2    1  UNL1        0.0105
     15 C         138.0498  138.2379  154.3220 C.3     1  UNL1        0.1816
     16 O         140.0798  138.8530  154.3468 O.2     1  UNL1       -0.1686
     17 O         138.4561  136.8348  155.8602 O.2     1  UNL1       -0.1686
     18 S         142.8720  138.9491  158.6797 S.O2    1  UNL1        0.0346
     19 O         141.9140  138.4389  159.7151 O.2     1  UNL1       -0.1637
     20 O         143.8300  139.4592  157.6444 O.2     1  UNL1       -0.1637
     21 C         143.4559  139.8956  159.6863 C.ar    1  UNL1        0.1599
     22 C         143.6329  141.3742  159.5071 C.ar    1  UNL1        0.1244
     23 N         144.2516  141.9221  160.7588 N.ar    1  UNL1       -0.2384
     24 C         144.4570  140.7820  161.7118 C.ar    1  UNL1        0.1052
     25 S         143.9652  139.5296  161.0489 S.2     1  UNL1       -0.0508
     26 C         145.0501  140.8777  163.0863 C.3     1  UNL1        0.1186
     27 N         146.2419  141.7553  163.3294 N.3     1  UNL1       -0.3157
     28 H         147.0457  141.3854  162.8221 H       1  UNL1        0.1192
     29 H         146.4503  141.7767  164.3277 H       1  UNL1        0.1192
@<TRIPOS>BOND
     1     7     8    1
     2     8     9   ar
     3     9    10   ar
     4    10    11   ar
     5    11     1    1
     6     1     2   ar
     7     2     3   ar
     8     3    14    1
     9    14    15    1
    10    14    16    2
    11    14    17    2
    12     3     4   ar
    13     4     5   ar
    14     5    18    1
    15    18    19    2
    16    18    20    2
    17    18    21    1
    18    21    22   ar
    19    22    23   ar
    20    23    24   ar
    21    24    26    1
    22    26    27    1
    23    24    25   ar
    24     5     6   ar
    25    11    12   ar
    26    12    13   ar
    27    13     8   ar
    28     6     1   ar
    29    25    21   ar
    30    27    28    1
    31    27    29    1
@<TRIPOS>MOLECULE
*****
 29 31 0 0 0
SMALL
GASTEIGER

@<TRIPOS>ATOM
      1 C         142.2992  135.8161  156.4892 C.ar    1  UNL1        0.0026
      2 C         141.0938  136.2033  155.6848 C.ar    1  UNL1        0.0184
      3 C         140.4463  137.5392  155.8996 C.ar    1  UNL1        0.1070
      4 C         141.0041  138.4878  156.9188 C.ar    1  UNL1        0.0371
      5 C         142.2095  138.1006  157.7232 C.ar    1  UNL1        0.1122
      6 C         142.8570  136.7647  157.5084 C.ar    1  UNL1        0.0188
      7 C         144.8892  130.4725  155.6299 C.3     1  UNL1        0.0310
      8 C         144.2417  131.8084  155.8448 C.ar    1  UNL1       -0.0218
      9 C         143.3617  132.3950  154.7811 C.ar    1  UNL1       -0.0043
     10 C         142.7142  133.7309  154.9959 C.ar    1  UNL1       -0.0003
     11 C         142.9467  134.4802  156.2744 C.ar    1  UNL1        0.0001
     12 C         143.8267  133.8936  157.3380 C.ar    1  UNL1       -0.0003
     13 C         144.4742  132.5577  157.1232 C.ar    1  UNL1       -0.0043
     14 S         139.2408  137.9264  155.0952 S.O2    1  UNL1        0.0105
     15 C         138.0355  138.3136  154.2908 C.3     1  UNL1        0.1816
     16 O         140.0375  139.0027  154.4195 O.2     1  UNL1       -0.1686
     17 O         138.4441  136.8500  155.7709 O.2     1  UNL1       -0.1686
     18 S         142.7675  139.0493  158.7424 S.O2    1  UNL1        0.0346
     19 O         141.6500  138.6993  159.6798 O.2     1  UNL1       -0.1637
     20 O         143.8849  139.3993  157.8050 O.2     1  UNL1       -0.1637
     21 C         143.3253  139.9979  159.7616 C.ar    1  UNL1        0.1599
     22 C         143.3494  141.4938  159.6537 C.ar    1  UNL1        0.1244
     23 N         143.9960  142.0376  160.8931 N.ar    1  UNL1       -0.2384
     24 C         144.3716  140.8778  161.7671 C.ar    1  UNL1        0.1052
     25 S         143.9571  139.6172  161.0678 S.2     1  UNL1       -0.0508
     26 C         145.0437  140.9635  163.1053 C.3     1  UNL1        0.1186
     27 N         146.3090  141.7540  163.2599 N.3     1  UNL1       -0.3157
     28 H         147.0544  141.3111  162.7227 H       1  UNL1        0.1192
     29 H         146.5722  141.7853  164.2448 H       1  UNL1        0.1192
@<TRIPOS>BOND
     1     7     8    1
     2     8     9   ar
     3     9    10   ar
     4    10    11   ar
     5    11     1    1
     6     1     2   ar
     7     2     3   ar
     8     3    14    1
     9    14    15    1
    10    14    16    2
    11    14    17    2
    12     3     4   ar
    13     4     5   ar
    14     5    18    1
    15    18    19    2
    16    18    20    2
    17    18    21    1
    18    21    22   ar
    19    22    23   ar
    20    23    24   ar
    21    24    26    1
    22    26    27    1
    23    24    25   ar
    24     5     6   ar
    25    11    12   ar
    26    12    13   ar
    27    13     8   ar
    28     6     1   ar
    29    25    21   ar
    30    27    28    1
    31    27    29    1
@<TRIPOS>MOLECULE
*****
 29 31 0 0 0
SMALL
GASTEIGER

@<TRIPOS>ATOM
      1 C         141.2293  139.1422  163.5199 C.ar    1  UNL1        0.0026
      2 C         142.4658  139.9001  163.9027 C.ar    1  UNL1        0.0184
      3 C         143.5160  140.1916  162.8722 C.ar    1  UNL1        0.1070
      4 C         143.3298  139.7252  161.4588 C.ar    1  UNL1        0.0371
      5 C         142.0933  138.9673  161.0759 C.ar    1  UNL1        0.1122
      6 C         141.0431  138.6758  162.1065 C.ar    1  UNL1        0.0188
      7 C         137.0283  137.9761  167.6420 C.3     1  UNL1        0.0310
      8 C         138.0786  138.2676  166.6115 C.ar    1  UNL1       -0.0218
      9 C         138.8420  139.5577  166.6628 C.ar    1  UNL1       -0.0043
     10 C         139.8923  139.8493  165.6323 C.ar    1  UNL1       -0.0003
     11 C         140.1791  138.8507  164.5504 C.ar    1  UNL1        0.0001
     12 C         139.4156  137.5606  164.4990 C.ar    1  UNL1       -0.0003
     13 C         138.3654  137.2690  165.5296 C.ar    1  UNL1       -0.0043
     14 S         144.7526  140.9496  163.2551 S.O2    1  UNL1        0.0105
     15 C         145.9891  141.7075  163.6380 C.3     1  UNL1        0.1816
     16 O         145.0535  141.1908  161.8056 O.2     1  UNL1       -0.1686
     17 O         144.4516  140.7083  164.7046 O.2     1  UNL1       -0.1686
     18 S         141.9070  138.5009  159.6624 S.O2    1  UNL1        0.0346
     19 O         140.4245  138.4333  159.8802 O.2     1  UNL1       -0.1637
     20 O         143.3895  138.5685  159.4447 O.2     1  UNL1       -0.1637
     21 C         141.7207  138.0345  158.2491 C.ar    1  UNL1        0.1599
     22 C         142.7971  137.5145  157.3431 C.ar    1  UNL1        0.1244
     23 N         142.1669  137.1649  156.0276 N.ar    1  UNL1       -0.2384
     24 C         140.7009  137.4687  156.1205 C.ar    1  UNL1        0.1052
     25 S         140.4251  138.0062  157.4935 S.2     1  UNL1       -0.0508
     26 C         139.6885  137.2700  155.0317 C.3     1  UNL1        0.1186
     27 N         138.2303  137.1786  155.3710 N.3     1  UNL1       -0.3157
     28 H         138.0607  136.3344  155.9179 H       1  UNL1        0.1192
     29 H         137.6828  137.1424  154.5112 H       1  UNL1        0.1192
@<TRIPOS>BOND
     1     7     8    1
     2     8     9   ar
     3     9    10   ar
     4    10    11   ar
     5    11     1    1
     6     1     2   ar
     7     2     3   ar
     8     3    14    1
     9    14    15    1
    10    14    16    2
    11    14    17    2
    12     3     4   ar
    13     4     5   ar
    14     5    18    1
    15    18    19    2
    16    18    20    2
    17    18    21    1
    18    21    22   ar
    19    22    23   ar
    20    23    24   ar
    21    24    26    1
    22    26    27    1
    23    24    25   ar
    24     5     6   ar
    25    11    12   ar
    26    12    13   ar
    27    13     8   ar
    28     6     1   ar
    29    25    21   ar
    30    27    28    1
    31    27    29    1
@<TRIPOS>MOLECULE
*****
 29 31 0 0 0
SMALL
GASTEIGER

@<TRIPOS>ATOM
      1 C         140.4541  141.3706  166.9939 C.ar    1  UNL1        0.0026
      2 C         139.7067  140.0969  167.2564 C.ar    1  UNL1        0.0184
      3 C         138.8907  139.4677  166.1663 C.ar    1  UNL1        0.1070
      4 C         138.8222  140.1123  164.8136 C.ar    1  UNL1        0.0371
      5 C         139.5696  141.3860  164.5510 C.ar    1  UNL1        0.1122
      6 C         140.3856  142.0151  165.6412 C.ar    1  UNL1        0.0188
      7 C         143.7180  143.8873  171.3543 C.3     1  UNL1        0.0310
      8 C         142.9020  143.2581  170.2642 C.ar    1  UNL1       -0.0218
      9 C         143.5392  142.2854  169.3167 C.ar    1  UNL1       -0.0043
     10 C         142.7232  141.6562  168.2266 C.ar    1  UNL1       -0.0003
     11 C         141.2701  141.9998  168.0840 C.ar    1  UNL1        0.0001
     12 C         140.6329  142.9725  169.0315 C.ar    1  UNL1       -0.0003
     13 C         141.4489  143.6017  170.1216 C.ar    1  UNL1       -0.0043
     14 S         138.1433  138.1940  166.4290 S.O2    1  UNL1        0.0105
     15 C         137.3959  136.9202  166.6916 C.3     1  UNL1        0.1816
     16 O         138.5345  137.6849  165.0733 O.2     1  UNL1       -0.1686
     17 O         137.7521  138.7030  167.7846 O.2     1  UNL1       -0.1686
     18 S         139.5011  142.0306  163.1983 S.O2    1  UNL1        0.0346
     19 O         140.7437  141.2983  162.7865 O.2     1  UNL1       -0.1637
     20 O         138.2584  142.7628  163.6101 O.2     1  UNL1       -0.1637
     21 C         139.4326  142.6751  161.8456 C.ar    1  UNL1        0.1599
     22 C         138.5543  142.2460  160.7079 C.ar    1  UNL1        0.1244
     23 N         138.8092  143.1676  159.5523 N.ar    1  UNL1       -0.2384
     24 C         139.8452  144.1664  159.9757 C.ar    1  UNL1        0.1052
     25 S         140.2305  143.8620  161.3930 S.2     1  UNL1       -0.0508
     26 C         140.3988  145.2748  159.1302 C.3     1  UNL1        0.1186
     27 N         141.8616  145.6015  159.1855 N.3     1  UNL1       -0.3157
     28 H         142.0951  145.9601  160.1114 H       1  UNL1        0.1192
     29 H         142.0792  146.3077  158.4825 H       1  UNL1        0.1192
@<TRIPOS>BOND
     1     7     8    1
     2     8     9   ar
     3     9    10   ar
     4    10    11   ar
     5    11     1    1
     6     1     2   ar
     7     2     3   ar
     8     3    14    1
     9    14    15    1
    10    14    16    2
    11    14    17    2
    12     3     4   ar
    13     4     5   ar
    14     5    18    1
    15    18    19    2
    16    18    20    2
    17    18    21    1
    18    21    22   ar
    19    22    23   ar
    20    23    24   ar
    21    24    26    1
    22    26    27    1
    23    24    25   ar
    24     5     6   ar
    25    11    12   ar
    26    12    13   ar
    27    13     8   ar
    28     6     1   ar
    29    25    21   ar
    30    27    28    1
    31    27    29    1
@<TRIPOS>MOLECULE
*****
 29 31 0 0 0
SMALL
GASTEIGER

@<TRIPOS>ATOM
      1 C         140.4087  141.8228  164.6955 C.ar    1  UNL1        0.0026
      2 C         140.1206  143.2125  164.2100 C.ar    1  UNL1        0.0184
      3 C         140.3400  143.5639  162.7684 C.ar    1  UNL1        0.1070
      4 C         140.8476  142.5256  161.8122 C.ar    1  UNL1        0.0371
      5 C         141.1357  141.1359  162.2977 C.ar    1  UNL1        0.1122
      6 C         140.9162  140.7845  163.7393 C.ar    1  UNL1        0.0188
      7 C         139.5309  140.4173  170.4621 C.3     1  UNL1        0.0310
      8 C         139.7504  140.7687  169.0205 C.ar    1  UNL1       -0.0218
      9 C         140.4320  142.0545  168.6573 C.ar    1  UNL1       -0.0043
     10 C         140.6514  142.4059  167.2156 C.ar    1  UNL1       -0.0003
     11 C         140.1893  141.4715  166.1372 C.ar    1  UNL1        0.0001
     12 C         139.5076  140.1856  166.5004 C.ar    1  UNL1       -0.0003
     13 C         139.2882  139.8342  167.9420 C.ar    1  UNL1       -0.0043
     14 S         140.0519  144.9537  162.2829 S.O2    1  UNL1        0.0105
     15 C         139.7638  146.3433  161.7974 C.3     1  UNL1        0.1816
     16 O         138.9572  144.4206  161.4069 O.2     1  UNL1       -0.1686
     17 O         141.1466  145.4867  163.1589 O.2     1  UNL1       -0.1686
     18 S         141.6432  140.0975  161.3415 S.O2    1  UNL1        0.0346
     19 O         140.4126  140.2697  160.5014 O.2     1  UNL1       -0.1637
     20 O         142.8739  139.9254  162.1816 O.2     1  UNL1       -0.1637
     21 C         142.1507  139.0592  160.3853 C.ar    1  UNL1        0.1599
     22 C         142.9501  137.8428  160.7475 C.ar    1  UNL1        0.1244
     23 N         143.2414  137.0867  159.4852 N.ar    1  UNL1       -0.2384
     24 C         142.6220  137.8360  158.3427 C.ar    1  UNL1        0.1052
     25 S         141.9479  139.0550  158.8991 S.2     1  UNL1       -0.0508
     26 C         142.6685  137.4363  156.8977 C.3     1  UNL1        0.1186
     27 N         143.9418  137.5850  156.1190 N.3     1  UNL1       -0.3157
     28 H         144.1723  138.5746  156.0299 H       1  UNL1        0.1192
     29 H         143.8223  137.1788  155.1911 H       1  UNL1        0.1192
@<TRIPOS>BOND
     1     7     8    1
     2     8     9   ar
     3     9    10   ar
     4    10    11   ar
     5    11     1    1
     6     1     2   ar
     7     2     3   ar
     8     3    14    1
     9    14    15    1
    10    14    16    2
    11    14    17    2
    12     3     4   ar
    13     4     5   ar
    14     5    18    1
    15    18    19    2
    16    18    20    2
    17    18    21    1
    18    21    22   ar
    19    22    23   ar
    20    23    24   ar
    21    24    26    1
    22    26    27    1
    23    24    25   ar
    24     5     6   ar
    25    11    12   ar
    26    12    13   ar
    27    13     8   ar
    28     6     1   ar
    29    25    21   ar
    30    27    28    1
    31    27    29    1
@<TRIPOS>MOLECULE
*****
 29 31 0 0 0
SMALL
GASTEIGER

@<TRIPOS>ATOM
      1 C         139.8892  140.9295  162.6435 C.ar    1  UNL1        0.0026
      2 C         139.6512  142.4093  162.7012 C.ar    1  UNL1        0.0184
      3 C         140.2168  143.3020  161.6367 C.ar    1  UNL1        0.1070
      4 C         141.0204  142.7149  160.5145 C.ar    1  UNL1        0.0371
      5 C         141.2585  141.2351  160.4568 C.ar    1  UNL1        0.1122
      6 C         140.6929  140.3424  161.5212 C.ar    1  UNL1        0.0188
      7 C         137.6268  137.3585  166.9014 C.3     1  UNL1        0.0310
      8 C         138.1924  138.2513  165.8369 C.ar    1  UNL1       -0.0218
      9 C         138.0561  139.7402  165.9563 C.ar    1  UNL1       -0.0043
     10 C         138.6217  140.6330  164.8919 C.ar    1  UNL1       -0.0003
     11 C         139.3236  140.0367  163.7079 C.ar    1  UNL1        0.0001
     12 C         139.4600  138.5478  163.5885 C.ar    1  UNL1       -0.0003
     13 C         138.8944  137.6550  164.6530 C.ar    1  UNL1       -0.0043
     14 S         139.9787  144.7820  161.6945 S.O2    1  UNL1        0.0105
     15 C         139.7406  146.2618  161.7523 C.3     1  UNL1        0.1816
     16 O         138.5552  144.5371  162.0990 O.2     1  UNL1       -0.1686
     17 O         141.4022  145.0268  161.2900 O.2     1  UNL1       -0.1686
     18 S         142.0622  140.6479  159.3345 S.O2    1  UNL1        0.0346
     19 O         142.6789  141.9902  159.0740 O.2     1  UNL1       -0.1637
     20 O         141.4454  139.3057  159.5950 O.2     1  UNL1       -0.1637
     21 C         142.8658  140.0608  158.2123 C.ar    1  UNL1        0.1599
     22 C         144.1768  140.5803  157.7009 C.ar    1  UNL1        0.1244
     23 N         144.6208  139.6917  156.5770 N.ar    1  UNL1       -0.2384
     24 C         143.5843  138.6230  156.3937 C.ar    1  UNL1        0.1052
     25 S         142.4997  138.8512  157.4044 S.2     1  UNL1       -0.0508
     26 C         143.6253  137.5199  155.3781 C.3     1  UNL1        0.1186
     27 N         144.7972  136.5849  155.3333 N.3     1  UNL1       -0.3157
     28 H         145.6333  137.1006  155.0589 H       1  UNL1        0.1192
     29 H         144.6161  135.8450  154.6549 H       1  UNL1        0.1192
@<TRIPOS>BOND
     1     7     8    1
     2     8     9   ar
     3     9    10   ar
     4    10    11   ar
     5    11     1    1
     6     1     2   ar
     7     2     3   ar
     8     3    14    1
     9    14    15    1
    10    14    16    2
    11    14    17    2
    12     3     4   ar
    13     4     5   ar
    14     5    18    1
    15    18    19    2
    16    18    20    2
    17    18    21    1
    18    21    22   ar
    19    22    23   ar
    20    23    24   ar
    21    24    26    1
    22    26    27    1
    23    24    25   ar
    24     5     6   ar
    25    11    12   ar
    26    12    13   ar
    27    13     8   ar
    28     6     1   ar
    29    25    21   ar
    30    27    28    1
    31    27    29    1
@<TRIPOS>MOLECULE
*****
 29 31 0 0 0
SMALL
GASTEIGER

@<TRIPOS>ATOM
      1 C         140.9672  141.1923  162.0020 C.ar    1  UNL1        0.0026
      2 C         140.6484  142.5944  161.5748 C.ar    1  UNL1        0.0184
      3 C         140.2130  143.6076  162.5917 C.ar    1  UNL1        0.1070
      4 C         140.0964  143.2187  164.0356 C.ar    1  UNL1        0.0371
      5 C         140.4152  141.8166  164.4628 C.ar    1  UNL1        0.1122
      6 C         140.8506  140.8034  163.4459 C.ar    1  UNL1        0.0188
      7 C         142.7088  137.1397  157.9347 C.3     1  UNL1        0.0310
      8 C         142.2734  138.1529  158.9515 C.ar    1  UNL1       -0.0218
      9 C         141.3751  139.2838  158.5464 C.ar    1  UNL1       -0.0043
     10 C         140.9397  140.2969  159.5633 C.ar    1  UNL1       -0.0003
     11 C         141.4026  140.1792  160.9852 C.ar    1  UNL1        0.0001
     12 C         142.3009  139.0483  161.3902 C.ar    1  UNL1       -0.0003
     13 C         142.7363  138.0352  160.3734 C.ar    1  UNL1       -0.0043
     14 S         139.8942  145.0097  162.1644 S.O2    1  UNL1        0.0105
     15 C         139.5753  146.4118  161.7373 C.3     1  UNL1        0.1816
     16 O         138.4309  144.7306  162.3404 O.2     1  UNL1       -0.1686
     17 O         141.3574  145.2888  161.9884 O.2     1  UNL1       -0.1686
     18 S         140.2985  141.4276  165.9068 S.O2    1  UNL1        0.0346
     19 O         139.9384  140.0292  165.5010 O.2     1  UNL1       -0.1637
     20 O         140.6587  142.8260  166.3126 O.2     1  UNL1       -0.1637
     21 C         140.1819  141.0386  167.3508 C.ar    1  UNL1        0.1599
     22 C         139.3935  139.8828  167.8916 C.ar    1  UNL1        0.1244
     23 N         139.5576  139.8669  169.3825 N.ar    1  UNL1       -0.2384
     24 C         140.4474  141.0130  169.7631 C.ar    1  UNL1        0.1052
     25 S         140.8333  141.7371  168.5074 S.2     1  UNL1       -0.0508
     26 C         140.8761  141.3718  171.1550 C.3     1  UNL1        0.1186
     27 N         142.0997  140.7398  171.7494 N.3     1  UNL1       -0.3157
     28 H         141.9402  139.7399  171.8724 H       1  UNL1        0.1192
     29 H         142.2972  141.1665  172.6546 H       1  UNL1        0.1192
@<TRIPOS>BOND
     1     7     8    1
     2     8     9   ar
     3     9    10   ar
     4    10    11   ar
     5    11     1    1
     6     1     2   ar
     7     2     3   ar
     8     3    14    1
     9    14    15    1
    10    14    16    2
    11    14    17    2
    12     3     4   ar
    13     4     5   ar
    14     5    18    1
    15    18    19    2
    16    18    20    2
    17    18    21    1
    18    21    22   ar
    19    22    23   ar
    20    23    24   ar
    21    24    26    1
    22    26    27    1
    23    24    25   ar
    24     5     6   ar
    25    11    12   ar
    26    12    13   ar
    27    13     8   ar
    28     6     1   ar
    29    25    21   ar
    30    27    28    1
    31    27    29    1
@<TRIPOS>MOLECULE
*****
 29 31 0 0 0
SMALL
GASTEIGER

@<TRIPOS>ATOM
      1 C         141.0359  140.4685  163.4146 C.ar    1  UNL1        0.0026
      2 C         141.6192  141.7922  163.8114 C.ar    1  UNL1        0.0184
      3 C         142.5561  142.5074  162.8836 C.ar    1  UNL1        0.1070
      4 C         142.9096  141.8988  161.5590 C.ar    1  UNL1        0.0371
      5 C         142.3263  140.5751  161.1622 C.ar    1  UNL1        0.1122
      6 C         141.3895  139.8599  162.0900 C.ar    1  UNL1        0.0188
      7 C         137.2885  137.6078  167.1259 C.3     1  UNL1        0.0310
      8 C         138.2254  138.3230  166.1981 C.ar    1  UNL1       -0.0218
      9 C         138.8881  137.5759  165.0789 C.ar    1  UNL1       -0.0043
     10 C         139.8250  138.2911  164.1511 C.ar    1  UNL1       -0.0003
     11 C         140.0991  139.7533  164.3424 C.ar    1  UNL1        0.0001
     12 C         139.4363  140.5004  165.4616 C.ar    1  UNL1       -0.0003
     13 C         138.4995  139.7852  166.3894 C.ar    1  UNL1       -0.0043
     14 S         143.1394  143.8311  163.2804 S.O2    1  UNL1        0.0105
     15 C         143.7227  145.1548  163.6772 C.3     1  UNL1        0.1816
     16 O         144.2483  143.6398  162.2887 O.2     1  UNL1       -0.1686
     17 O         142.0305  144.0225  164.2722 O.2     1  UNL1       -0.1686
     18 S         142.6798  139.9665  159.8375 S.O2    1  UNL1        0.0346
     19 O         141.3902  139.2005  159.8453 O.2     1  UNL1       -0.1637
     20 O         143.9694  140.7325  159.8297 O.2     1  UNL1       -0.1637
     21 C         143.0333  139.3579  158.5129 C.ar    1  UNL1        0.1599
     22 C         143.8115  140.0230  157.4166 C.ar    1  UNL1        0.1244
     23 N         143.9298  139.0535  156.2782 N.ar    1  UNL1       -0.2384
     24 C         143.2247  137.7891  156.6709 C.ar    1  UNL1        0.1052
     25 S         142.6706  137.9773  158.0520 S.2     1  UNL1       -0.0508
     26 C         143.0961  136.5536  155.8301 C.3     1  UNL1        0.1186
     27 N         144.3252  135.8702  155.3085 N.3     1  UNL1       -0.3157
     28 H         144.7974  136.4815  154.6424 H       1  UNL1        0.1192
     29 H         144.0601  135.0017  154.8440 H       1  UNL1        0.1192
@<TRIPOS>BOND
     1     7     8    1
     2     8     9   ar
     3     9    10   ar
     4    10    11   ar
     5    11     1    1
     6     1     2   ar
     7     2     3   ar
     8     3    14    1
     9    14    15    1
    10    14    16    2
    11    14    17    2
    12     3     4   ar
    13     4     5   ar
    14     5    18    1
    15    18    19    2
    16    18    20    2
    17    18    21    1
    18    21    22   ar
    19    22    23   ar
    20    23    24   ar
    21    24    26    1
    22    26    27    1
    23    24    25   ar
    24     5     6   ar
    25    11    12   ar
    26    12    13   ar
    27    13     8   ar
    28     6     1   ar
    29    25    21   ar
    30    27    28    1
    31    27    29    1
@<TRIPOS>MOLECULE
*****
 29 31 0 0 0
SMALL
GASTEIGER

@<TRIPOS>ATOM
      1 C         140.9896  141.3824  164.1334 C.ar    1  UNL1        0.0026
      2 C         140.6463  142.8163  163.8579 C.ar    1  UNL1        0.0184
      3 C         140.4911  143.2921  162.4439 C.ar    1  UNL1        0.1070
      4 C         140.6793  142.3338  161.3053 C.ar    1  UNL1        0.0371
      5 C         141.0225  140.8999  161.5808 C.ar    1  UNL1        0.1122
      6 C         141.1777  140.4242  162.9949 C.ar    1  UNL1        0.0188
      7 C         141.6101  139.4795  169.7897 C.3     1  UNL1        0.0310
      8 C         141.4550  139.9552  168.3757 C.ar    1  UNL1       -0.0218
      9 C         142.6654  140.1388  167.5091 C.ar    1  UNL1       -0.0043
     10 C         142.5103  140.6146  166.0950 C.ar    1  UNL1       -0.0003
     11 C         141.1447  140.9067  165.5475 C.ar    1  UNL1        0.0001
     12 C         139.9343  140.7230  166.4141 C.ar    1  UNL1       -0.0003
     13 C         140.0894  140.2473  167.8282 C.ar    1  UNL1       -0.0043
     14 S         140.1479  144.7261  162.1684 S.O2    1  UNL1        0.0105
     15 C         139.8046  146.1600  161.8930 C.3     1  UNL1        0.1816
     16 O         141.3416  145.1646  162.9638 O.2     1  UNL1       -0.1686
     17 O         138.9541  144.2876  161.3730 O.2     1  UNL1       -0.1686
     18 S         141.2107  139.9416  160.4422 S.O2    1  UNL1        0.0346
     19 O         140.7649  141.0003  159.4776 O.2     1  UNL1       -0.1637
     20 O         141.6564  138.8829  161.4068 O.2     1  UNL1       -0.1637
     21 C         141.3988  138.9834  159.3036 C.ar    1  UNL1        0.1599
     22 C         142.6126  138.1383  159.0539 C.ar    1  UNL1        0.1244
     23 N         142.3701  137.3346  157.8108 N.ar    1  UNL1       -0.2384
     24 C         141.0064  137.6831  157.2922 C.ar    1  UNL1        0.1052
     25 S         140.4061  138.7020  158.2148 S.2     1  UNL1       -0.0508
     26 C         140.3570  137.1126  156.0663 C.3     1  UNL1        0.1186
     27 N         138.9215  136.6801  156.1102 N.3     1  UNL1       -0.3157
     28 H         138.8254  135.8838  156.7404 H       1  UNL1        0.1192
     29 H         138.6185  136.4113  155.1741 H       1  UNL1        0.1192
@<TRIPOS>BOND
     1     7     8    1
     2     8     9   ar
     3     9    10   ar
     4    10    11   ar
     5    11     1    1
     6     1     2   ar
     7     2     3   ar
     8     3    14    1
     9    14    15    1
    10    14    16    2
    11    14    17    2
    12     3     4   ar
    13     4     5   ar
    14     5    18    1
    15    18    19    2
    16    18    20    2
    17    18    21    1
    18    21    22   ar
    19    22    23   ar
    20    23    24   ar
    21    24    26    1
    22    26    27    1
    23    24    25   ar
    24     5     6   ar
    25    11    12   ar
    26    12    13   ar
    27    13     8   ar
    28     6     1   ar
    29    25    21   ar
    30    27    28    1
    31    27    29    1
