@<TRIPOS>MOLECULE
*****
 32 36 0 0 0
SMALL
GASTEIGER

@<TRIPOS>ATOM
      1 N         142.8134  138.5728  159.6870 N.am    1  UNL1       -0.2523
      2 C         143.9312  138.6184  160.6863 C.3     1  UNL1        0.0992
      3 C         143.3407  138.4245  162.0515 C.3     1  UNL1        0.0306
      4 C         141.8579  138.2591  161.8960 C.3     1  UNL1        0.0737
      5 C         140.3979  138.1102  161.5860 C.3     1  UNL1        0.0260
      6 C         139.4139  137.8916  162.6967 C.3     1  UNL1        0.0727
      7 N         139.8899  137.8217  164.1175 N.3     1  UNL1       -0.2703
      8 C         141.3499  137.9706  164.4275 C.3     1  UNL1        0.0727
      9 C         142.3339  138.1893  163.3167 C.3     1  UNL1        0.0260
     10 C         141.5321  138.3507  160.4347 C.2     1  UNL1        0.2289
     11 O         140.1649  138.2397  159.8275 O.2     1  UNL1       -0.2745
     12 C         142.8982  137.5007  154.5176 C.3     1  UNL1        0.0528
     13 C         142.9915  138.2301  155.8249 C.ar    1  UNL1        0.0690
     14 C         142.7510  137.6401  157.1828 C.ar    1  UNL1        0.0384
     15 C         142.9526  138.7229  158.2010 C.ar    1  UNL1        0.1031
     16 S         143.3177  139.9822  157.4725 S.2     1  UNL1        0.0278
     17 N         143.3418  139.6776  156.0039 N.ar    1  UNL1       -0.2122
     18 C         138.9057  137.6030  165.2283 C.3     1  UNL1        0.1063
     19 C         138.1706  138.7692  165.8193 C.3     1  UNL1        0.1483
     20 O         137.3056  138.5753  167.0294 O.3     1  UNL1       -0.3786
     21 H         136.9061  139.4228  167.2804 H       1  UNL1        0.2108
     22 C         138.3002  140.1294  165.2003 C.ar    1  UNL1        0.0015
     23 C         137.4705  140.4913  164.0042 C.ar    1  UNL1       -0.0020
     24 C         137.6002  141.8514  163.3852 C.ar    1  UNL1        0.0060
     25 C         138.5596  142.8497  163.9623 C.ar    1  UNL1        0.0748
     26 C         139.3893  142.4878  165.1583 C.ar    1  UNL1        0.0233
     27 C         139.2596  141.1277  165.7774 C.ar    1  UNL1       -0.0238
     28 C         140.0894  140.7658  166.9734 C.3     1  UNL1        0.0306
     29 C         140.2437  143.6710  165.5049 C.3     1  UNL1        0.2352
     30 O         139.9420  144.7641  164.5230 O.3     1  UNL1       -0.4404
     31 C         138.9012  144.2565  163.5696 C.2     1  UNL1        0.3413
     32 O         138.3063  145.0214  162.4246 O.2     1  UNL1       -0.2449
@<TRIPOS>BOND
     1    12    13    1
     2    13    14   ar
     3    14    15   ar
     4    15     1    1
     5     1     2    1
     6     2     3    1
     7     3     4    1
     8     4     5    1
     9     5     6    1
    10     6     7    1
    11     7    18    1
    12    18    19    1
    13    19    20    1
    14    19    22    1
    15    22    23   ar
    16    23    24   ar
    17    24    25   ar
    18    25    26   ar
    19    26    27   ar
    20    27    28    1
    21    26    29    1
    22    29    30    1
    23    30    31    1
    24    31    32    2
    25     7     8    1
    26     8     9    1
    27     4    10    1
    28    10    11    2
    29    15    16   ar
    30    16    17   ar
    31    17    13   ar
    32    10     1   am
    33     9     4    1
    34    27    22   ar
    35    31    25    1
    36    20    21    1
@<TRIPOS>MOLECULE
*****
 32 36 0 0 0
SMALL
GASTEIGER

@<TRIPOS>ATOM
      1 N         140.2455  144.9019  160.1980 N.am    1  UNL1       -0.2523
      2 C         139.9642  145.8665  161.3118 C.3     1  UNL1        0.0992
      3 C         139.5221  145.0771  162.5082 C.3     1  UNL1        0.0306
      4 C         139.5302  143.6245  162.1340 C.3     1  UNL1        0.0737
      5 C         139.5871  142.2174  161.6175 C.3     1  UNL1        0.0260
      6 C         139.2136  141.0740  162.5137 C.3     1  UNL1        0.0727
      7 N         138.7833  141.3377  163.9262 N.3     1  UNL1       -0.2703
      8 C         138.7264  142.7448  164.4426 C.3     1  UNL1        0.0727
      9 C         139.0998  143.8882  163.5465 C.3     1  UNL1        0.0260
     10 C         139.9772  143.5162  160.7062 C.2     1  UNL1        0.2289
     11 O         140.1294  142.2454  159.9240 O.2     1  UNL1       -0.2745
     12 C         140.3898  146.8501  155.2926 C.3     1  UNL1        0.0528
     13 C         140.7793  146.1554  156.5637 C.ar    1  UNL1        0.0690
     14 C         139.9311  146.0278  157.7943 C.ar    1  UNL1        0.0384
     15 C         140.7130  145.2599  158.8185 C.ar    1  UNL1        0.1031
     16 S         142.0443  144.9129  158.2210 S.2     1  UNL1        0.0278
     17 N         142.0853  145.4664  156.8274 N.ar    1  UNL1       -0.2122
     18 C         138.4099  140.1942  164.8224 C.3     1  UNL1        0.1063
     19 C         139.4496  139.5530  165.6929 C.3     1  UNL1        0.1483
     20 O         140.1489  138.3082  165.2332 O.3     1  UNL1       -0.3786
     21 H         140.7855  138.0267  165.9088 H       1  UNL1        0.2108
     22 C         139.7899  140.1567  167.0233 C.ar    1  UNL1        0.0015
     23 C         138.9359  139.8626  168.2208 C.ar    1  UNL1       -0.0020
     24 C         139.2762  140.4662  169.5512 C.ar    1  UNL1        0.0060
     25 C         140.4706  141.3638  169.6839 C.ar    1  UNL1        0.0748
     26 C         141.3246  141.6579  168.4864 C.ar    1  UNL1        0.0233
     27 C         140.9843  141.0543  167.1561 C.ar    1  UNL1       -0.0238
     28 C         141.8384  141.3483  165.9585 C.3     1  UNL1        0.0306
     29 C         142.4313  142.5731  168.9197 C.3     1  UNL1        0.2352
     30 O         142.2612  142.8447  170.3851 O.3     1  UNL1       -0.4404
     31 C         141.0494  142.0973  170.8574 C.2     1  UNL1        0.3413
     32 O         140.5110  142.0855  172.2574 O.2     1  UNL1       -0.2449
@<TRIPOS>BOND
     1    12    13    1
     2    13    14   ar
     3    14    15   ar
     4    15     1    1
     5     1     2    1
     6     2     3    1
     7     3     4    1
     8     4     5    1
     9     5     6    1
    10     6     7    1
    11     7    18    1
    12    18    19    1
    13    19    20    1
    14    19    22    1
    15    22    23   ar
    16    23    24   ar
    17    24    25   ar
    18    25    26   ar
    19    26    27   ar
    20    27    28    1
    21    26    29    1
    22    29    30    1
    23    30    31    1
    24    31    32    2
    25     7     8    1
    26     8     9    1
    27     4    10    1
    28    10    11    2
    29    15    16   ar
    30    16    17   ar
    31    17    13   ar
    32    10     1   am
    33     9     4    1
    34    27    22   ar
    35    31    25    1
    36    20    21    1
@<TRIPOS>MOLECULE
*****
 32 36 0 0 0
SMALL
GASTEIGER

@<TRIPOS>ATOM
      1 N         140.8734  139.9715  167.2477 N.am    1  UNL1       -0.2523
      2 C         139.3834  139.8862  167.3988 C.3     1  UNL1        0.0992
      3 C         138.8064  139.4729  166.0773 C.3     1  UNL1        0.0306
      4 C         139.9397  139.3027  165.1095 C.3     1  UNL1        0.0737
      5 C         141.1687  139.1731  164.2594 C.3     1  UNL1        0.0260
      6 C         141.0461  138.7661  162.8209 C.3     1  UNL1        0.0727
      7 N         139.6945  138.4888  162.2325 N.3     1  UNL1       -0.2703
      8 C         138.4655  138.6184  163.0826 C.3     1  UNL1        0.0727
      9 C         138.5881  139.0253  164.5211 C.3     1  UNL1        0.0260
     10 C         141.2172  139.6108  165.8328 C.2     1  UNL1        0.2289
     11 O         142.5963  139.5662  165.2445 O.2     1  UNL1       -0.2745
     12 C         144.3734  142.6849  170.1230 C.3     1  UNL1        0.0528
     13 C         143.4571  141.5980  169.6443 C.ar    1  UNL1        0.0690
     14 C         142.5969  141.6473  168.4164 C.ar    1  UNL1        0.0384
     15 C         141.8483  140.3509  168.3226 C.ar    1  UNL1        0.1031
     16 S         142.2458  139.5004  169.4925 S.2     1  UNL1        0.0278
     17 N         143.2401  140.2712  170.3093 N.ar    1  UNL1       -0.2122
     18 C         139.5719  138.0819  160.7939 C.3     1  UNL1        0.1063
     19 C         139.4322  139.1278  159.7279 C.3     1  UNL1        0.1483
     20 O         139.1678  138.7214  158.3084 O.3     1  UNL1       -0.3786
     21 H         139.1056  139.5132  157.7516 H       1  UNL1        0.2108
     22 C         139.5569  140.5803  160.0813 C.ar    1  UNL1        0.0015
     23 C         138.3524  141.3461  160.5424 C.ar    1  UNL1       -0.0020
     24 C         138.4770  142.7985  160.8958 C.ar    1  UNL1        0.0060
     25 C         139.8063  143.4851  160.7881 C.ar    1  UNL1        0.0748
     26 C         141.0108  142.7193  160.3271 C.ar    1  UNL1        0.0233
     27 C         140.8862  141.2669  159.9737 C.ar    1  UNL1       -0.0238
     28 C         142.0907  140.5011  159.5126 C.3     1  UNL1        0.0306
     29 C         142.1814  143.6572  160.3196 C.3     1  UNL1        0.2352
     30 O         141.7003  145.0027  160.7760 O.3     1  UNL1       -0.4404
     31 C         140.2324  144.8963  161.0656 C.2     1  UNL1        0.3413
     32 O         139.3462  146.0062  161.5479 O.2     1  UNL1       -0.2449
@<TRIPOS>BOND
     1    12    13    1
     2    13    14   ar
     3    14    15   ar
     4    15     1    1
     5     1     2    1
     6     2     3    1
     7     3     4    1
     8     4     5    1
     9     5     6    1
    10     6     7    1
    11     7    18    1
    12    18    19    1
    13    19    20    1
    14    19    22    1
    15    22    23   ar
    16    23    24   ar
    17    24    25   ar
    18    25    26   ar
    19    26    27   ar
    20    27    28    1
    21    26    29    1
    22    29    30    1
    23    30    31    1
    24    31    32    2
    25     7     8    1
    26     8     9    1
    27     4    10    1
    28    10    11    2
    29    15    16   ar
    30    16    17   ar
    31    17    13   ar
    32    10     1   am
    33     9     4    1
    34    27    22   ar
    35    31    25    1
    36    20    21    1
@<TRIPOS>MOLECULE
*****
 32 36 0 0 0
SMALL
GASTEIGER

@<TRIPOS>ATOM
      1 N         138.3856  140.3477  159.5628 N.am    1  UNL1       -0.2523
      2 C         138.9739  138.9701  159.4843 C.3     1  UNL1        0.0992
      3 C         139.1054  138.4418  160.8820 C.3     1  UNL1        0.0306
      4 C         138.5982  139.4929  161.8245 C.3     1  UNL1        0.0737
      5 C         138.0622  140.6319  162.6401 C.3     1  UNL1        0.0260
      6 C         138.0092  140.5240  164.1352 C.3     1  UNL1        0.0727
      7 N         138.4923  139.2771  164.8148 N.3     1  UNL1       -0.2703
      8 C         139.0283  138.1380  163.9992 C.3     1  UNL1        0.0727
      9 C         139.0812  138.2459  162.5041 C.3     1  UNL1        0.0260
     10 C         138.1534  140.6708  161.0092 C.2     1  UNL1        0.2289
     11 O         137.5775  141.9476  161.5459 O.2     1  UNL1       -0.2745
     12 C         136.2752  142.2723  155.1219 C.3     1  UNL1        0.0528
     13 C         137.1126  142.1293  156.3581 C.ar    1  UNL1        0.0690
     14 C         137.0893  140.9699  157.3095 C.ar    1  UNL1        0.0384
     15 C         138.0826  141.2447  158.3994 C.ar    1  UNL1        0.1031
     16 S         138.7198  142.5739  158.1216 S.2     1  UNL1        0.0278
     17 N         138.1203  143.1206  156.8600 N.ar    1  UNL1       -0.2122
     18 C         138.4393  139.1692  166.3100 C.3     1  UNL1        0.1063
     19 C         139.5802  139.6790  167.1396 C.3     1  UNL1        0.1483
     20 O         139.4441  139.7632  168.6311 O.3     1  UNL1       -0.3786
     21 H         140.2660  140.1106  169.0116 H       1  UNL1        0.2108
     22 C         140.8573  140.1047  166.4778 C.ar    1  UNL1        0.0015
     23 C         141.9143  139.0878  166.1635 C.ar    1  UNL1       -0.0020
     24 C         143.1913  139.5134  165.5017 C.ar    1  UNL1        0.0060
     25 C         143.4114  140.9559  165.1543 C.ar    1  UNL1        0.0748
     26 C         142.3544  141.9728  165.4686 C.ar    1  UNL1        0.0233
     27 C         141.0774  141.5472  166.1304 C.ar    1  UNL1       -0.0238
     28 C         140.0204  142.5641  166.4447 C.3     1  UNL1        0.0306
     29 C         142.8499  143.3128  165.0115 C.3     1  UNL1        0.2352
     30 O         144.2130  143.1241  164.4147 O.3     1  UNL1       -0.4404
     31 C         144.5600  141.6675  164.5030 C.2     1  UNL1        0.3413
     32 O         145.8324  141.0337  164.0240 O.2     1  UNL1       -0.2449
@<TRIPOS>BOND
     1    12    13    1
     2    13    14   ar
     3    14    15   ar
     4    15     1    1
     5     1     2    1
     6     2     3    1
     7     3     4    1
     8     4     5    1
     9     5     6    1
    10     6     7    1
    11     7    18    1
    12    18    19    1
    13    19    20    1
    14    19    22    1
    15    22    23   ar
    16    23    24   ar
    17    24    25   ar
    18    25    26   ar
    19    26    27   ar
    20    27    28    1
    21    26    29    1
    22    29    30    1
    23    30    31    1
    24    31    32    2
    25     7     8    1
    26     8     9    1
    27     4    10    1
    28    10    11    2
    29    15    16   ar
    30    16    17   ar
    31    17    13   ar
    32    10     1   am
    33     9     4    1
    34    27    22   ar
    35    31    25    1
    36    20    21    1
@<TRIPOS>MOLECULE
*****
 32 36 0 0 0
SMALL
GASTEIGER

@<TRIPOS>ATOM
      1 N         142.9226  138.2933  159.4387 N.am    1  UNL1       -0.2523
      2 C         142.9237  137.3261  160.5853 C.3     1  UNL1        0.0992
      3 C         143.4732  138.0339  161.7883 C.3     1  UNL1        0.0306
      4 C         143.8117  139.4386  161.3852 C.3     1  UNL1        0.0737
      5 C         144.0994  140.8054  160.8384 C.3     1  UNL1        0.0260
      6 C         144.6768  141.8639  161.7307 C.3     1  UNL1        0.0727
      7 N         144.9664  141.5555  163.1698 N.3     1  UNL1       -0.2703
      8 C         144.6787  140.1887  163.7166 C.3     1  UNL1        0.0727
      9 C         144.1014  139.1303  162.8243 C.3     1  UNL1        0.0260
     10 C         143.4714  139.5989  159.9331 C.2     1  UNL1        0.2289
     11 O         143.6488  140.8458  159.1184 O.2     1  UNL1       -0.2745
     12 C         142.3659  136.0496  154.6915 C.3     1  UNL1        0.0528
     13 C         142.1990  136.9741  155.8609 C.ar    1  UNL1        0.0690
     14 C         142.9305  136.8843  157.1673 C.ar    1  UNL1        0.0384
     15 C         142.4549  138.0054  158.0429 C.ar    1  UNL1        0.1031
     16 S         141.4293  138.7881  157.2778 S.2     1  UNL1        0.0278
     17 N         141.2711  138.1507  155.9291 N.ar    1  UNL1       -0.2122
     18 C         145.5438  142.6141  164.0621 C.3     1  UNL1        0.1063
     19 C         144.6391  143.4436  164.9243 C.3     1  UNL1        0.1483
     20 O         145.1636  144.0584  166.1880 O.3     1  UNL1       -0.3786
     21 H         144.4551  144.5586  166.6225 H       1  UNL1        0.2108
     22 C         143.2098  143.6584  164.5227 C.ar    1  UNL1        0.0015
     23 C         142.8711  144.6688  163.4672 C.ar    1  UNL1       -0.0020
     24 C         141.4419  144.8836  163.0656 C.ar    1  UNL1        0.0060
     25 C         140.3515  144.0879  163.7197 C.ar    1  UNL1        0.0748
     26 C         140.6902  143.0774  164.7752 C.ar    1  UNL1        0.0233
     27 C         142.1194  142.8627  165.1768 C.ar    1  UNL1       -0.0238
     28 C         142.4582  141.8522  166.2324 C.3     1  UNL1        0.0306
     29 C         139.4114  142.4462  165.2401 C.3     1  UNL1        0.2352
     30 O         138.2822  143.0665  164.4718 O.3     1  UNL1       -0.4404
     31 C         138.8633  144.0811  163.5321 C.2     1  UNL1        0.3413
     32 O         138.0916  144.9385  162.5733 O.2     1  UNL1       -0.2449
@<TRIPOS>BOND
     1    12    13    1
     2    13    14   ar
     3    14    15   ar
     4    15     1    1
     5     1     2    1
     6     2     3    1
     7     3     4    1
     8     4     5    1
     9     5     6    1
    10     6     7    1
    11     7    18    1
    12    18    19    1
    13    19    20    1
    14    19    22    1
    15    22    23   ar
    16    23    24   ar
    17    24    25   ar
    18    25    26   ar
    19    26    27   ar
    20    27    28    1
    21    26    29    1
    22    29    30    1
    23    30    31    1
    24    31    32    2
    25     7     8    1
    26     8     9    1
    27     4    10    1
    28    10    11    2
    29    15    16   ar
    30    16    17   ar
    31    17    13   ar
    32    10     1   am
    33     9     4    1
    34    27    22   ar
    35    31    25    1
    36    20    21    1
@<TRIPOS>MOLECULE
*****
 32 36 0 0 0
SMALL
GASTEIGER

@<TRIPOS>ATOM
      1 N         140.8145  141.0928  168.4900 N.am    1  UNL1       -0.2523
      2 C         139.6561  140.3000  169.0189 C.3     1  UNL1        0.0992
      3 C         138.9662  139.6539  167.8541 C.3     1  UNL1        0.0306
      4 C         139.6983  140.0474  166.6053 C.3     1  UNL1        0.0737
      5 C         140.5270  140.5230  165.4490 C.3     1  UNL1        0.0260
      6 C         140.1780  140.1013  164.0525 C.3     1  UNL1        0.0727
      7 N         139.0003  139.2039  163.8123 N.3     1  UNL1       -0.2703
      8 C         138.1716  138.7282  164.9685 C.3     1  UNL1        0.0727
      9 C         138.5206  139.1500  166.3650 C.3     1  UNL1        0.0260
     10 C         140.8406  140.9366  166.9983 C.2     1  UNL1        0.2289
     11 O         141.8344  141.5602  166.0638 O.2     1  UNL1       -0.2745
     12 C         145.2842  143.1747  170.3787 C.3     1  UNL1        0.0528
     13 C         143.8322  142.8569  170.1771 C.ar    1  UNL1        0.0690
     14 C         143.2698  141.9130  169.1559 C.ar    1  UNL1        0.0384
     15 C         141.7778  141.8999  169.3089 C.ar    1  UNL1        0.1031
     16 S         141.4179  142.8356  170.4247 S.2     1  UNL1        0.0278
     17 N         142.6877  143.4271  170.9613 N.ar    1  UNL1       -0.2122
     18 C         138.6513  138.7821  162.4157 C.3     1  UNL1        0.1063
     19 C         138.0365  139.7673  161.4662 C.3     1  UNL1        0.1483
     20 O         136.7133  139.4671  160.8267 O.3     1  UNL1       -0.3786
     21 H         136.4610  140.2017  160.2455 H       1  UNL1        0.2108
     22 C         138.7449  141.0527  161.1563 C.ar    1  UNL1        0.0015
     23 C         139.7489  141.1062  160.0431 C.ar    1  UNL1       -0.0020
     24 C         140.4573  142.3915  159.7332 C.ar    1  UNL1        0.0060
     25 C         140.1618  143.6233  160.5364 C.ar    1  UNL1        0.0748
     26 C         139.1578  143.5698  161.6496 C.ar    1  UNL1        0.0233
     27 C         138.4494  142.2845  161.9595 C.ar    1  UNL1       -0.0238
     28 C         137.4454  142.2310  163.0727 C.3     1  UNL1        0.0306
     29 C         139.0742  144.9354  162.2644 C.3     1  UNL1        0.2352
     30 O         140.0266  145.8330  161.5313 O.3     1  UNL1       -0.4404
     31 C         140.6987  145.0220  160.4633 C.2     1  UNL1        0.3413
     32 O         141.7272  145.5219  159.4926 O.2     1  UNL1       -0.2449
@<TRIPOS>BOND
     1    12    13    1
     2    13    14   ar
     3    14    15   ar
     4    15     1    1
     5     1     2    1
     6     2     3    1
     7     3     4    1
     8     4     5    1
     9     5     6    1
    10     6     7    1
    11     7    18    1
    12    18    19    1
    13    19    20    1
    14    19    22    1
    15    22    23   ar
    16    23    24   ar
    17    24    25   ar
    18    25    26   ar
    19    26    27   ar
    20    27    28    1
    21    26    29    1
    22    29    30    1
    23    30    31    1
    24    31    32    2
    25     7     8    1
    26     8     9    1
    27     4    10    1
    28    10    11    2
    29    15    16   ar
    30    16    17   ar
    31    17    13   ar
    32    10     1   am
    33     9     4    1
    34    27    22   ar
    35    31    25    1
    36    20    21    1
@<TRIPOS>MOLECULE
*****
 32 36 0 0 0
SMALL
GASTEIGER

@<TRIPOS>ATOM
      1 N         140.9598  138.5063  159.0168 N.am    1  UNL1       -0.2523
      2 C         139.6052  139.0953  158.7557 C.3     1  UNL1        0.0992
      3 C         138.8780  139.1839  160.0646 C.3     1  UNL1        0.0306
      4 C         139.7831  138.6496  161.1349 C.3     1  UNL1        0.0737
      5 C         140.7940  138.0903  162.0916 C.3     1  UNL1        0.0260
      6 C         140.4695  137.9921  163.5528 C.3     1  UNL1        0.0727
      7 N         139.1342  138.4530  164.0572 N.3     1  UNL1       -0.2703
      8 C         138.1233  139.0123  163.1004 C.3     1  UNL1        0.0727
      9 C         138.4478  139.1105  161.6393 C.3     1  UNL1        0.0260
     10 C         141.0697  138.2308  160.4873 C.2     1  UNL1        0.2289
     11 O         142.2577  137.6402  161.1872 O.2     1  UNL1       -0.2745
     12 C         143.9926  136.0690  155.4473 C.3     1  UNL1        0.0528
     13 C         143.4125  137.1193  156.3475 C.ar    1  UNL1        0.0690
     14 C         142.2603  136.9343  157.2900 C.ar    1  UNL1        0.0384
     15 C         142.0185  138.2396  157.9883 C.ar    1  UNL1        0.1031
     16 S         143.0211  139.2314  157.4774 S.2     1  UNL1        0.0278
     17 N         143.8827  138.5390  156.4633 N.ar    1  UNL1       -0.2122
     18 C         138.8097  138.3547  165.5184 C.3     1  UNL1        0.1063
     19 C         139.1878  139.4701  166.4473 C.3     1  UNL1        0.1483
     20 O         138.8475  139.3798  167.9054 O.3     1  UNL1       -0.3786
     21 H         139.1601  140.1774  168.3604 H       1  UNL1        0.2108
     22 C         139.9063  140.6759  165.9181 C.ar    1  UNL1        0.0015
     23 C         139.1265  141.8214  165.3437 C.ar    1  UNL1       -0.0020
     24 C         139.8449  143.0271  164.8145 C.ar    1  UNL1        0.0060
     25 C         141.3430  143.0875  164.8598 C.ar    1  UNL1        0.0748
     26 C         142.1227  141.9420  165.4342 C.ar    1  UNL1        0.0233
     27 C         141.4043  140.7363  165.9634 C.ar    1  UNL1       -0.0238
     28 C         142.1840  139.5908  166.5379 C.3     1  UNL1        0.0306
     29 C         143.5807  142.2833  165.3461 C.3     1  UNL1        0.2352
     30 O         143.7021  143.6396  164.7171 O.3     1  UNL1       -0.4404
     31 C         142.3191  144.1366  164.4166 C.2     1  UNL1        0.3413
     32 O         141.9730  145.4519  163.7839 O.2     1  UNL1       -0.2449
@<TRIPOS>BOND
     1    12    13    1
     2    13    14   ar
     3    14    15   ar
     4    15     1    1
     5     1     2    1
     6     2     3    1
     7     3     4    1
     8     4     5    1
     9     5     6    1
    10     6     7    1
    11     7    18    1
    12    18    19    1
    13    19    20    1
    14    19    22    1
    15    22    23   ar
    16    23    24   ar
    17    24    25   ar
    18    25    26   ar
    19    26    27   ar
    20    27    28    1
    21    26    29    1
    22    29    30    1
    23    30    31    1
    24    31    32    2
    25     7     8    1
    26     8     9    1
    27     4    10    1
    28    10    11    2
    29    15    16   ar
    30    16    17   ar
    31    17    13   ar
    32    10     1   am
    33     9     4    1
    34    27    22   ar
    35    31    25    1
    36    20    21    1
@<TRIPOS>MOLECULE
*****
 32 36 0 0 0
SMALL
GASTEIGER

@<TRIPOS>ATOM
      1 N         142.0451  138.3731  159.4023 N.am    1  UNL1       -0.2523
      2 C         143.4442  138.9093  159.3289 C.3     1  UNL1        0.0992
      3 C         143.9640  139.0415  160.7297 C.3     1  UNL1        0.0306
      4 C         142.8863  138.5870  161.6689 C.3     1  UNL1        0.0737
      5 C         141.7208  138.1051  162.4809 C.3     1  UNL1        0.0260
      6 C         141.8128  138.0700  163.9776 C.3     1  UNL1        0.0727
      7 N         143.0704  138.5167  164.6624 N.3     1  UNL1       -0.2703
      8 C         144.2359  138.9986  163.8504 C.3     1  UNL1        0.0727
      9 C         144.1439  139.0338  162.3537 C.3     1  UNL1        0.0260
     10 C         141.7004  138.1739  160.8485 C.2     1  UNL1        0.2289
     11 O         140.3983  137.6532  161.3809 O.2     1  UNL1       -0.2745
     12 C         140.2091  136.4883  154.8245 C.3     1  UNL1        0.0528
     13 C         140.3044  137.2201  156.1304 C.ar    1  UNL1        0.0690
     14 C         141.4886  137.2299  157.0511 C.ar    1  UNL1        0.0384
     15 C         141.1484  138.0864  158.2345 C.ar    1  UNL1        0.1031
     16 S         139.7540  138.6059  158.0453 S.2     1  UNL1        0.0278
     17 N         139.2324  138.0705  156.7448 N.ar    1  UNL1       -0.2122
     18 C         143.1624  138.4815  166.1592 C.3     1  UNL1        0.1063
     19 C         142.8316  139.7059  166.9599 C.3     1  UNL1        0.1483
     20 O         142.9284  139.6722  168.4564 O.3     1  UNL1       -0.3786
     21 H         142.6822  140.5389  168.8160 H       1  UNL1        0.2108
     22 C         142.4038  140.9642  166.2642 C.ar    1  UNL1        0.0015
     23 C         143.4349  141.9262  165.7530 C.ar    1  UNL1       -0.0020
     24 C         143.0073  143.1843  165.0573 C.ar    1  UNL1        0.0060
     25 C         141.5484  143.4805  164.8728 C.ar    1  UNL1        0.0748
     26 C         140.5173  142.5185  165.3839 C.ar    1  UNL1        0.0233
     27 C         140.9450  141.2603  166.0796 C.ar    1  UNL1       -0.0238
     28 C         139.9139  140.2983  166.5908 C.3     1  UNL1        0.0306
     29 C         139.1628  143.0747  165.0585 C.3     1  UNL1        0.2352
     30 O         139.3567  144.3805  164.3463 O.3     1  UNL1       -0.4404
     31 C         140.8312  144.6312  164.2315 C.2     1  UNL1        0.3413
     32 O         141.4753  145.8235  163.5883 O.2     1  UNL1       -0.2449
@<TRIPOS>BOND
     1    12    13    1
     2    13    14   ar
     3    14    15   ar
     4    15     1    1
     5     1     2    1
     6     2     3    1
     7     3     4    1
     8     4     5    1
     9     5     6    1
    10     6     7    1
    11     7    18    1
    12    18    19    1
    13    19    20    1
    14    19    22    1
    15    22    23   ar
    16    23    24   ar
    17    24    25   ar
    18    25    26   ar
    19    26    27   ar
    20    27    28    1
    21    26    29    1
    22    29    30    1
    23    30    31    1
    24    31    32    2
    25     7     8    1
    26     8     9    1
    27     4    10    1
    28    10    11    2
    29    15    16   ar
    30    16    17   ar
    31    17    13   ar
    32    10     1   am
    33     9     4    1
    34    27    22   ar
    35    31    25    1
    36    20    21    1
@<TRIPOS>MOLECULE
*****
 32 36 0 0 0
SMALL
GASTEIGER

@<TRIPOS>ATOM
      1 N         139.7312  140.0218  167.0660 N.am    1  UNL1       -0.2523
      2 C         138.5613  139.1720  166.6669 C.3     1  UNL1        0.0992
      3 C         138.9145  138.4667  165.3911 C.3     1  UNL1        0.0306
      4 C         140.3028  138.8806  165.0015 C.3     1  UNL1        0.0737
      5 C         141.6916  139.3838  164.7412 C.3     1  UNL1        0.0260
      6 C         142.4431  138.9183  163.5294 C.3     1  UNL1        0.0727
      7 N         141.8057  137.9496  162.5779 N.3     1  UNL1       -0.2703
      8 C         140.4168  137.4464  162.8382 C.3     1  UNL1        0.0727
      9 C         139.6654  137.9119  164.0501 C.3     1  UNL1        0.0260
     10 C         140.8075  139.8417  166.0367 C.2     1  UNL1        0.2289
     11 O         142.1523  140.5061  166.0417 O.2     1  UNL1       -0.2745
     12 C         140.5768  144.1739  170.2163 C.3     1  UNL1        0.0528
     13 C         140.1996  142.8064  169.7290 C.ar    1  UNL1        0.0690
     14 C         140.2883  142.3195  168.3130 C.ar    1  UNL1        0.0384
     15 C         139.8109  140.8979  168.2809 C.ar    1  UNL1        0.1031
     16 S         139.4271  140.5062  169.6770 S.2     1  UNL1        0.0278
     17 N         139.6673  141.6857  170.5720 N.ar    1  UNL1       -0.2122
     18 C         142.5572  137.4841  161.3660 C.3     1  UNL1        0.1063
     19 C         142.5621  138.3192  160.1200 C.3     1  UNL1        0.1483
     20 O         143.0710  137.7421  158.8323 O.3     1  UNL1       -0.3786
     21 H         143.0050  138.4087  158.1308 H       1  UNL1        0.2108
     22 C         142.0581  139.7314  160.1615 C.ar    1  UNL1        0.0015
     23 C         140.6382  140.0324  159.7831 C.ar    1  UNL1       -0.0020
     24 C         140.1342  141.4446  159.8246 C.ar    1  UNL1        0.0060
     25 C         141.0501  142.5557  160.2446 C.ar    1  UNL1        0.0748
     26 C         142.4700  142.2547  160.6230 C.ar    1  UNL1        0.0233
     27 C         142.9740  140.8426  160.5815 C.ar    1  UNL1       -0.0238
     28 C         144.3939  140.5416  160.9599 C.3     1  UNL1        0.0306
     29 C         143.1349  143.5473  160.9934 C.3     1  UNL1        0.2352
     30 O         142.1260  144.6471  160.8438 O.3     1  UNL1       -0.4404
     31 C         140.8375  144.0343  160.3811 C.2     1  UNL1        0.3413
     32 O         139.5605  144.7707  160.1035 O.2     1  UNL1       -0.2449
@<TRIPOS>BOND
     1    12    13    1
     2    13    14   ar
     3    14    15   ar
     4    15     1    1
     5     1     2    1
     6     2     3    1
     7     3     4    1
     8     4     5    1
     9     5     6    1
    10     6     7    1
    11     7    18    1
    12    18    19    1
    13    19    20    1
    14    19    22    1
    15    22    23   ar
    16    23    24   ar
    17    24    25   ar
    18    25    26   ar
    19    26    27   ar
    20    27    28    1
    21    26    29    1
    22    29    30    1
    23    30    31    1
    24    31    32    2
    25     7     8    1
    26     8     9    1
    27     4    10    1
    28    10    11    2
    29    15    16   ar
    30    16    17   ar
    31    17    13   ar
    32    10     1   am
    33     9     4    1
    34    27    22   ar
    35    31    25    1
    36    20    21    1
