@<TRIPOS>MOLECULE
*****
 27 30 0 0 0
SMALL
GASTEIGER

@<TRIPOS>ATOM
      1 C         138.5046  138.9656  162.9948 C.ar    1  UNL1        0.0729
      2 C         138.7799  137.7015  163.7539 C.ar    1  UNL1        0.0109
      3 C         138.8090  137.7185  165.2536 C.ar    1  UNL1        0.0583
      4 C         138.5629  138.9995  165.9941 C.ar    1  UNL1        0.2297
      5 N         138.2876  140.2636  165.2350 N.ar    1  UNL1       -0.2097
      6 C         138.2585  140.2467  163.7354 C.ar    1  UNL1        0.1065
      7 O         137.2081  139.2828  160.7659 O.2     1  UNL1       -0.2699
      8 C         138.4755  138.9487  161.4952 C.2     1  UNL1        0.2506
      9 N         139.7138  138.5978  160.7249 N.am    1  UNL1       -0.2746
     10 C         140.9256  138.2805  161.5502 C.3     1  UNL1        0.0952
     11 C         142.2995  137.8975  161.0856 C.3     1  UNL1        0.0388
     12 C         142.8009  137.7373  159.6811 C.3     1  UNL1        0.0739
     13 N         142.0524  137.9205  158.3941 N.3     1  UNL1       -0.2725
     14 C         140.6175  138.3090  158.1940 C.3     1  UNL1        0.0938
     15 C         139.5768  138.6104  159.2313 C.3     1  UNL1        0.1110
     16 C         142.8433  137.6837  157.1418 C.3     1  UNL1        0.0576
     17 C         143.3121  136.4689  156.3971 C.3     1  UNL1        0.0160
     18 C         143.9618  137.3488  155.3707 C.3     1  UNL1        0.0028
     19 C         143.4931  138.5637  156.1153 C.3     1  UNL1        0.0160
     20 O         138.5920  139.0164  167.4937 O.3     1  UNL1       -0.4361
     21 C         139.4560  140.0073  168.2160 C.ar    1  UNL1        0.1473
     22 C         140.6899  140.5477  167.5561 C.ar    1  UNL1        0.0399
     23 C         141.5538  141.5386  168.2785 C.ar    1  UNL1        0.0328
     24 C         141.1838  141.9892  169.6605 C.ar    1  UNL1        0.1403
     25 F         142.0478  142.9801  170.3827 F       1  UNL1       -0.2042
     26 C         139.9498  141.4488  170.3202 C.ar    1  UNL1        0.0328
     27 C         139.0859  140.4578  169.5980 C.ar    1  UNL1        0.0399
@<TRIPOS>BOND
     1     7     8    2
     2     8     1    1
     3     1     2   ar
     4     2     3   ar
     5     3     4   ar
     6     4    20    1
     7    20    21    1
     8    21    22   ar
     9    22    23   ar
    10    23    24   ar
    11    24    25    1
    12    24    26   ar
    13    26    27   ar
    14     4     5   ar
    15     5     6   ar
    16     8     9   am
    17     9    10    1
    18    10    11    1
    19    11    12    1
    20    12    13    1
    21    13    16    1
    22    16    17    1
    23    17    18    1
    24    18    19    1
    25    13    14    1
    26    14    15    1
    27     6     1   ar
    28    15     9    1
    29    27    21   ar
    30    19    16    1
@<TRIPOS>MOLECULE
*****
 27 30 0 0 0
SMALL
GASTEIGER

@<TRIPOS>ATOM
      1 C         142.2405  138.1625  162.4530 C.ar    1  UNL1        0.0729
      2 C         141.1328  138.3980  161.4693 C.ar    1  UNL1        0.0109
      3 C         141.4356  138.4697  160.0019 C.ar    1  UNL1        0.0583
      4 C         142.8460  138.3059  159.5182 C.ar    1  UNL1        0.2297
      5 N         143.9536  138.0704  160.5019 N.ar    1  UNL1       -0.2097
      6 C         143.6510  137.9987  161.9692 C.ar    1  UNL1        0.1065
      7 O         141.3018  136.8602  164.4957 O.2     1  UNL1       -0.2699
      8 C         141.9378  138.0908  163.9203 C.2     1  UNL1        0.2506
      9 N         142.2712  139.2497  164.8124 N.am    1  UNL1       -0.2746
     10 C         142.9042  140.4300  164.1368 C.3     1  UNL1        0.0952
     11 C         143.3498  141.7272  164.7441 C.3     1  UNL1        0.0388
     12 C         143.2726  142.1645  166.1768 C.3     1  UNL1        0.0739
     13 N         142.7306  141.4126  167.3562 N.3     1  UNL1       -0.2725
     14 C         142.1320  140.0378  167.3941 C.3     1  UNL1        0.0938
     15 C         141.9276  139.0752  166.2620 C.3     1  UNL1        0.1110
     16 C         142.7958  142.1306  168.6716 C.3     1  UNL1        0.0576
     17 C         143.8702  142.3919  169.6852 C.3     1  UNL1        0.0160
     18 C         142.8881  143.1459  170.5319 C.3     1  UNL1        0.0028
     19 C         141.8137  142.8846  169.5183 C.3     1  UNL1        0.0160
     20 O         143.1487  138.3776  158.0508 O.3     1  UNL1       -0.4361
     21 C         142.5820  137.3496  157.1170 C.ar    1  UNL1        0.1473
     22 C         143.1690  135.9699  157.0750 C.ar    1  UNL1        0.0399
     23 C         142.6023  134.9419  156.1412 C.ar    1  UNL1        0.0328
     24 C         141.4486  135.2935  155.2494 C.ar    1  UNL1        0.1403
     25 F         140.8819  134.2655  154.3155 F       1  UNL1       -0.2042
     26 C         140.8617  136.6733  155.2914 C.ar    1  UNL1        0.0328
     27 C         141.4284  137.7013  156.2252 C.ar    1  UNL1        0.0399
@<TRIPOS>BOND
     1     7     8    2
     2     8     1    1
     3     1     2   ar
     4     2     3   ar
     5     3     4   ar
     6     4    20    1
     7    20    21    1
     8    21    22   ar
     9    22    23   ar
    10    23    24   ar
    11    24    25    1
    12    24    26   ar
    13    26    27   ar
    14     4     5   ar
    15     5     6   ar
    16     8     9   am
    17     9    10    1
    18    10    11    1
    19    11    12    1
    20    12    13    1
    21    13    16    1
    22    16    17    1
    23    17    18    1
    24    18    19    1
    25    13    14    1
    26    14    15    1
    27     6     1   ar
    28    15     9    1
    29    27    21   ar
    30    19    16    1
@<TRIPOS>MOLECULE
*****
 27 30 0 0 0
SMALL
GASTEIGER

@<TRIPOS>ATOM
      1 C         139.8686  138.7222  164.5150 C.ar    1  UNL1        0.0729
      2 C         138.6073  138.4306  165.2727 C.ar    1  UNL1        0.0109
      3 C         138.4231  138.9725  166.6593 C.ar    1  UNL1        0.0583
      4 C         139.5002  139.8058  167.2881 C.ar    1  UNL1        0.2297
      5 N         140.7614  140.0974  166.5304 N.ar    1  UNL1       -0.2097
      6 C         140.9457  139.5556  165.1439 C.ar    1  UNL1        0.1065
      7 O         140.7310  136.8583  162.9238 O.2     1  UNL1       -0.2699
      8 C         140.0528  138.1804  163.1285 C.2     1  UNL1        0.2506
      9 N         139.5589  138.9608  161.9465 N.am    1  UNL1       -0.2746
     10 C         138.8959  140.2690  162.2615 C.3     1  UNL1        0.0952
     11 C         138.3034  141.2694  161.3135 C.3     1  UNL1        0.0388
     12 C         138.2277  141.2085  159.8168 C.3     1  UNL1        0.0739
     13 N         138.7256  140.1324  158.8981 N.3     1  UNL1       -0.2725
     14 C         139.4223  138.8513  159.2493 C.3     1  UNL1        0.0938
     15 C         139.7931  138.3300  160.6061 C.3     1  UNL1        0.1110
     16 C         138.4966  140.3686  157.4346 C.3     1  UNL1        0.0576
     17 C         137.4642  141.0975  156.6267 C.3     1  UNL1        0.0160
     18 C         138.1727  140.7027  155.3649 C.3     1  UNL1        0.0028
     19 C         139.2052  139.9738  156.1728 C.3     1  UNL1        0.0160
     20 O         139.3159  140.3476  168.6747 O.3     1  UNL1       -0.4361
     21 C         140.3744  141.2160  169.2874 C.ar    1  UNL1        0.1473
     22 C         141.6042  140.5942  169.8799 C.ar    1  UNL1        0.0399
     23 C         142.6627  141.4627  170.4927 C.ar    1  UNL1        0.0328
     24 C         142.4915  142.9527  170.5129 C.ar    1  UNL1        0.1403
     25 F         143.5500  143.8210  171.1256 F       1  UNL1       -0.2042
     26 C         141.2617  143.5743  169.9204 C.ar    1  UNL1        0.0328
     27 C         140.2031  142.7060  169.3076 C.ar    1  UNL1        0.0399
@<TRIPOS>BOND
     1     7     8    2
     2     8     1    1
     3     1     2   ar
     4     2     3   ar
     5     3     4   ar
     6     4    20    1
     7    20    21    1
     8    21    22   ar
     9    22    23   ar
    10    23    24   ar
    11    24    25    1
    12    24    26   ar
    13    26    27   ar
    14     4     5   ar
    15     5     6   ar
    16     8     9   am
    17     9    10    1
    18    10    11    1
    19    11    12    1
    20    12    13    1
    21    13    16    1
    22    16    17    1
    23    17    18    1
    24    18    19    1
    25    13    14    1
    26    14    15    1
    27     6     1   ar
    28    15     9    1
    29    27    21   ar
    30    19    16    1
@<TRIPOS>MOLECULE
*****
 27 30 0 0 0
SMALL
GASTEIGER

@<TRIPOS>ATOM
      1 C         143.6694  142.6014  163.2804 C.ar    1  UNL1        0.0729
      2 C         144.4051  143.6667  164.0379 C.ar    1  UNL1        0.0109
      3 C         144.3771  143.6756  165.5377 C.ar    1  UNL1        0.0583
      4 C         143.6134  142.6193  166.2799 C.ar    1  UNL1        0.2297
      5 N         142.8777  141.5540  165.5224 N.ar    1  UNL1       -0.2097
      6 C         142.9056  141.5450  164.0227 C.ar    1  UNL1        0.1065
      7 O         144.7449  141.8015  161.0549 O.2     1  UNL1       -0.2699
      8 C         143.6973  142.5924  161.7808 C.2     1  UNL1        0.2506
      9 N         142.6776  143.3743  161.0069 N.am    1  UNL1       -0.2746
     10 C         141.6757  144.1297  161.8289 C.3     1  UNL1        0.0952
     11 C         140.5433  144.9948  161.3604 C.3     1  UNL1        0.0388
     12 C         140.1333  145.3181  159.9543 C.3     1  UNL1        0.0739
     13 N         140.7542  144.8563  158.6693 N.3     1  UNL1       -0.2725
     14 C         141.9387  143.9570  158.4731 C.3     1  UNL1        0.0938
     15 C         142.7946  143.2975  159.5135 C.3     1  UNL1        0.1110
     16 C         140.1050  145.3604  157.4146 C.3     1  UNL1        0.0576
     17 C         139.9225  146.7085  156.7826 C.3     1  UNL1        0.0160
     18 C         139.1867  146.0734  155.6402 C.3     1  UNL1        0.0028
     19 C         139.3691  144.7253  156.2721 C.3     1  UNL1        0.0160
     20 O         143.5855  142.6283  167.7796 O.3     1  UNL1       -0.4361
     21 C         142.4746  141.9371  168.5132 C.ar    1  UNL1        0.1473
     22 C         141.1918  142.6639  168.7890 C.ar    1  UNL1        0.0399
     23 C         140.0810  141.9726  169.5226 C.ar    1  UNL1        0.0328
     24 C         140.2529  140.5546  169.9804 C.ar    1  UNL1        0.1403
     25 F         139.1421  139.8633  170.7140 F       1  UNL1       -0.2042
     26 C         141.5358  139.8279  169.7046 C.ar    1  UNL1        0.0328
     27 C         142.6467  140.5191  168.9710 C.ar    1  UNL1        0.0399
@<TRIPOS>BOND
     1     7     8    2
     2     8     1    1
     3     1     2   ar
     4     2     3   ar
     5     3     4   ar
     6     4    20    1
     7    20    21    1
     8    21    22   ar
     9    22    23   ar
    10    23    24   ar
    11    24    25    1
    12    24    26   ar
    13    26    27   ar
    14     4     5   ar
    15     5     6   ar
    16     8     9   am
    17     9    10    1
    18    10    11    1
    19    11    12    1
    20    12    13    1
    21    13    16    1
    22    16    17    1
    23    17    18    1
    24    18    19    1
    25    13    14    1
    26    14    15    1
    27     6     1   ar
    28    15     9    1
    29    27    21   ar
    30    19    16    1
@<TRIPOS>MOLECULE
*****
 27 30 0 0 0
SMALL
GASTEIGER

@<TRIPOS>ATOM
      1 C         141.3871  139.2769  158.8494 C.ar    1  UNL1        0.0729
      2 C         140.3777  138.4806  158.0767 C.ar    1  UNL1        0.0109
      3 C         140.8315  137.5224  157.0156 C.ar    1  UNL1        0.0583
      4 C         142.2946  137.3604  156.7273 C.ar    1  UNL1        0.2297
      5 N         143.3039  138.1567  157.5000 N.ar    1  UNL1       -0.2097
      6 C         142.8503  139.1149  158.5610 C.ar    1  UNL1        0.1065
      7 O         140.7266  141.6824  159.5753 O.2     1  UNL1       -0.2699
      8 C         140.9335  140.2351  159.9105 C.2     1  UNL1        0.2506
      9 N         140.6867  139.7461  161.3069 N.am    1  UNL1       -0.2746
     10 C         140.9233  138.2825  161.5352 C.3     1  UNL1        0.0952
     11 C         140.7676  137.4965  162.8034 C.3     1  UNL1        0.0388
     12 C         140.3369  137.9801  164.1563 C.3     1  UNL1        0.0739
     13 N         139.9555  139.3689  164.5754 N.3     1  UNL1       -0.2725
     14 C         139.9106  140.6173  163.7450 C.3     1  UNL1        0.0938
     15 C         140.2361  140.7850  162.2904 C.3     1  UNL1        0.1110
     16 C         139.5677  139.5309  166.0153 C.3     1  UNL1        0.0576
     17 C         140.1928  140.1773  167.2160 C.3     1  UNL1        0.0160
     18 C         139.0193  139.7599  168.0517 C.3     1  UNL1        0.0028
     19 C         138.3941  139.1134  166.8512 C.3     1  UNL1        0.0160
     20 O         142.7483  136.4021  155.6661 O.3     1  UNL1       -0.4361
     21 C         142.7124  134.9250  155.9245 C.ar    1  UNL1        0.1473
     22 C         141.7044  134.0649  155.2215 C.ar    1  UNL1        0.0399
     23 C         141.6686  132.5878  155.4800 C.ar    1  UNL1        0.0328
     24 C         142.6407  131.9707  156.4413 C.ar    1  UNL1        0.1403
     25 F         142.6049  130.4936  156.6997 F       1  UNL1       -0.2042
     26 C         143.6487  132.8309  157.1442 C.ar    1  UNL1        0.0328
     27 C         143.6846  134.3081  156.8858 C.ar    1  UNL1        0.0399
@<TRIPOS>BOND
     1     7     8    2
     2     8     1    1
     3     1     2   ar
     4     2     3   ar
     5     3     4   ar
     6     4    20    1
     7    20    21    1
     8    21    22   ar
     9    22    23   ar
    10    23    24   ar
    11    24    25    1
    12    24    26   ar
    13    26    27   ar
    14     4     5   ar
    15     5     6   ar
    16     8     9   am
    17     9    10    1
    18    10    11    1
    19    11    12    1
    20    12    13    1
    21    13    16    1
    22    16    17    1
    23    17    18    1
    24    18    19    1
    25    13    14    1
    26    14    15    1
    27     6     1   ar
    28    15     9    1
    29    27    21   ar
    30    19    16    1
@<TRIPOS>MOLECULE
*****
 27 30 0 0 0
SMALL
GASTEIGER

@<TRIPOS>ATOM
      1 C         138.3559  140.0566  159.4653 C.ar    1  UNL1        0.0729
      2 C         137.5921  140.1823  160.7501 C.ar    1  UNL1        0.0109
      3 C         138.0444  139.4323  161.9679 C.ar    1  UNL1        0.0583
      4 C         139.2604  138.5567  161.9009 C.ar    1  UNL1        0.2297
      5 N         140.0242  138.4310  160.6161 N.ar    1  UNL1       -0.2097
      6 C         139.5720  139.1810  159.3983 C.ar    1  UNL1        0.1065
      7 O         136.8226  140.2395  157.3760 O.2     1  UNL1       -0.2699
      8 C         137.9037  140.8065  158.2475 C.2     1  UNL1        0.2506
      9 N         138.5326  142.1236  157.9012 N.am    1  UNL1       -0.2746
     10 C         139.6031  142.5998  158.8379 C.3     1  UNL1        0.0952
     11 C         140.4133  143.8604  158.7687 C.3     1  UNL1        0.0388
     12 C         140.3531  144.9558  157.7460 C.3     1  UNL1        0.0739
     13 N         139.4679  145.0615  156.5396 N.3     1  UNL1       -0.2725
     14 C         138.4242  144.0977  156.0582 C.3     1  UNL1        0.0938
     15 C         138.0080  142.7902  156.6642 C.3     1  UNL1        0.1110
     16 C         139.6504  146.2939  155.7043 C.3     1  UNL1        0.0576
     17 C         140.5087  146.6621  154.5304 C.3     1  UNL1        0.0160
     18 C         139.9087  148.0368  154.5229 C.3     1  UNL1        0.0028
     19 C         139.0504  147.6687  155.6967 C.3     1  UNL1        0.0160
     20 O         139.7126  137.8067  163.1188 O.3     1  UNL1       -0.4361
     21 C         139.5584  138.4214  164.4784 C.ar    1  UNL1        0.1473
     22 C         140.5188  139.4785  164.9367 C.ar    1  UNL1        0.0399
     23 C         140.3645  140.0931  166.2963 C.ar    1  UNL1        0.0328
     24 C         139.2500  139.6507  167.1975 C.ar    1  UNL1        0.1403
     25 F         139.0958  140.2654  168.5570 F       1  UNL1       -0.2042
     26 C         138.2897  138.5935  166.7390 C.ar    1  UNL1        0.0328
     27 C         138.4439  137.9789  165.3794 C.ar    1  UNL1        0.0399
@<TRIPOS>BOND
     1     7     8    2
     2     8     1    1
     3     1     2   ar
     4     2     3   ar
     5     3     4   ar
     6     4    20    1
     7    20    21    1
     8    21    22   ar
     9    22    23   ar
    10    23    24   ar
    11    24    25    1
    12    24    26   ar
    13    26    27   ar
    14     4     5   ar
    15     5     6   ar
    16     8     9   am
    17     9    10    1
    18    10    11    1
    19    11    12    1
    20    12    13    1
    21    13    16    1
    22    16    17    1
    23    17    18    1
    24    18    19    1
    25    13    14    1
    26    14    15    1
    27     6     1   ar
    28    15     9    1
    29    27    21   ar
    30    19    16    1
@<TRIPOS>MOLECULE
*****
 27 30 0 0 0
SMALL
GASTEIGER

@<TRIPOS>ATOM
      1 C         140.7740  138.3271  161.8684 C.ar    1  UNL1        0.0729
      2 C         142.1188  137.6627  161.8612 C.ar    1  UNL1        0.0109
      3 C         142.9429  137.6514  160.6079 C.ar    1  UNL1        0.0583
      4 C         142.4222  138.3043  159.3619 C.ar    1  UNL1        0.2297
      5 N         141.0774  138.9687  159.3692 N.ar    1  UNL1       -0.2097
      6 C         140.2533  138.9801  160.6224 C.ar    1  UNL1        0.1065
      7 O         138.7972  137.3902  163.2700 O.2     1  UNL1       -0.2699
      8 C         139.9498  138.3385  163.1217 C.2     1  UNL1        0.2506
      9 N         140.2783  139.2983  164.2266 N.am    1  UNL1       -0.2746
     10 C         141.4491  140.2022  163.9769 C.3     1  UNL1        0.0952
     11 C         142.0234  141.2583  164.8741 C.3     1  UNL1        0.0388
     12 C         141.5686  141.6714  166.2424 C.3     1  UNL1        0.0739
     13 N         140.4273  141.1305  167.0517 N.3     1  UNL1       -0.2725
     14 C         139.4589  140.0428  166.6924 C.3     1  UNL1        0.0938
     15 C         139.3926  139.2275  165.4350 C.3     1  UNL1        0.1110
     16 C         140.2281  141.7606  168.3982 C.3     1  UNL1        0.0576
     17 C         139.6229  141.3178  169.6974 C.3     1  UNL1        0.0160
     18 C         139.9463  142.6516  170.3027 C.3     1  UNL1        0.0028
     19 C         140.5515  143.0945  169.0035 C.3     1  UNL1        0.0160
     20 O         143.2464  138.2929  158.1086 O.3     1  UNL1       -0.4361
     21 C         142.8502  137.4155  156.9583 C.ar    1  UNL1        0.1473
     22 C         142.8913  135.9232  157.1045 C.ar    1  UNL1        0.0399
     23 C         142.4950  135.0459  155.9542 C.ar    1  UNL1        0.0328
     24 C         142.0576  135.6607  154.6578 C.ar    1  UNL1        0.1403
     25 F         141.6614  134.7833  153.5075 F       1  UNL1       -0.2042
     26 C         142.0165  137.1531  154.5118 C.ar    1  UNL1        0.0328
     27 C         142.4128  138.0304  155.6620 C.ar    1  UNL1        0.0399
@<TRIPOS>BOND
     1     7     8    2
     2     8     1    1
     3     1     2   ar
     4     2     3   ar
     5     3     4   ar
     6     4    20    1
     7    20    21    1
     8    21    22   ar
     9    22    23   ar
    10    23    24   ar
    11    24    25    1
    12    24    26   ar
    13    26    27   ar
    14     4     5   ar
    15     5     6   ar
    16     8     9   am
    17     9    10    1
    18    10    11    1
    19    11    12    1
    20    12    13    1
    21    13    16    1
    22    16    17    1
    23    17    18    1
    24    18    19    1
    25    13    14    1
    26    14    15    1
    27     6     1   ar
    28    15     9    1
    29    27    21   ar
    30    19    16    1
@<TRIPOS>MOLECULE
*****
 27 30 0 0 0
SMALL
GASTEIGER

@<TRIPOS>ATOM
      1 C         141.8901  138.5374  162.7467 C.ar    1  UNL1        0.0729
      2 C         141.2653  137.5011  163.6331 C.ar    1  UNL1        0.0109
      3 C         140.4893  137.9210  164.8462 C.ar    1  UNL1        0.0583
      4 C         140.3380  139.3772  165.1728 C.ar    1  UNL1        0.2297
      5 N         140.9628  140.4134  164.2864 N.ar    1  UNL1       -0.2097
      6 C         141.7388  139.9936  163.0734 C.ar    1  UNL1        0.1065
      7 O         144.1121  137.7402  161.6619 O.2     1  UNL1       -0.2699
      8 C         142.6661  138.1176  161.5337 C.2     1  UNL1        0.2506
      9 N         141.9961  138.0751  160.1923 N.am    1  UNL1       -0.2746
     10 C         140.5494  138.4713  160.1747 C.3     1  UNL1        0.0952
     11 C         139.6106  138.5323  159.0063 C.3     1  UNL1        0.0388
     12 C         139.8866  138.2122  157.5672 C.3     1  UNL1        0.0739
     13 N         141.1695  137.7519  156.9408 N.3     1  UNL1       -0.2725
     14 C         142.4933  137.4982  157.5990 C.3     1  UNL1        0.0938
     15 C         142.8611  137.6420  159.0461 C.3     1  UNL1        0.1110
     16 C         141.1224  137.5140  155.4606 C.3     1  UNL1        0.0576
     17 C         141.4513  136.3597  154.5608 C.3     1  UNL1        0.0160
     18 C         141.0559  137.1774  153.3671 C.3     1  UNL1        0.0028
     19 C         140.7270  138.3317  154.2668 C.3     1  UNL1        0.0160
     20 O         139.5620  139.7970  166.3859 O.3     1  UNL1       -0.4361
     21 C         140.2638  139.9803  167.6989 C.ar    1  UNL1        0.1473
     22 C         139.4676  140.2117  168.9489 C.ar    1  UNL1        0.0399
     23 C         140.1695  140.3950  170.2619 C.ar    1  UNL1        0.0328
     24 C         141.6674  140.3468  170.3248 C.ar    1  UNL1        0.1403
     25 F         142.3692  140.5301  171.6377 F       1  UNL1       -0.2042
     26 C         142.4634  140.1153  169.0747 C.ar    1  UNL1        0.0328
     27 C         141.7616  139.9321  167.7617 C.ar    1  UNL1        0.0399
@<TRIPOS>BOND
     1     7     8    2
     2     8     1    1
     3     1     2   ar
     4     2     3   ar
     5     3     4   ar
     6     4    20    1
     7    20    21    1
     8    21    22   ar
     9    22    23   ar
    10    23    24   ar
    11    24    25    1
    12    24    26   ar
    13    26    27   ar
    14     4     5   ar
    15     5     6   ar
    16     8     9   am
    17     9    10    1
    18    10    11    1
    19    11    12    1
    20    12    13    1
    21    13    16    1
    22    16    17    1
    23    17    18    1
    24    18    19    1
    25    13    14    1
    26    14    15    1
    27     6     1   ar
    28    15     9    1
    29    27    21   ar
    30    19    16    1
@<TRIPOS>MOLECULE
*****
 27 30 0 0 0
SMALL
GASTEIGER

@<TRIPOS>ATOM
      1 C         140.4559  144.7498  162.3674 C.ar    1  UNL1        0.0729
      2 C         141.6965  145.0649  163.1493 C.ar    1  UNL1        0.0109
      3 C         141.9424  144.3940  164.4683 C.ar    1  UNL1        0.0583
      4 C         140.9476  143.4081  165.0052 C.ar    1  UNL1        0.2297
      5 N         139.7070  143.0930  164.2233 N.ar    1  UNL1       -0.2097
      6 C         139.4610  143.7638  162.9044 C.ar    1  UNL1        0.1065
      7 O         139.2016  146.5263  160.9459 O.2     1  UNL1       -0.2699
      8 C         140.2100  145.4206  161.0485 C.2     1  UNL1        0.2506
      9 N         140.9724  144.9856  159.8321 N.am    1  UNL1       -0.2746
     10 C         141.9556  143.8727  160.0439 C.3     1  UNL1        0.0952
     11 C         142.8601  143.2204  159.0406 C.3     1  UNL1        0.0388
     12 C         143.0046  143.5198  157.5780 C.3     1  UNL1        0.0739
     13 N         142.2805  144.5455  156.7572 N.3     1  UNL1       -0.2725
     14 C         141.2330  145.5251  157.1965 C.3     1  UNL1        0.0938
     15 C         140.6508  145.7209  158.5650 C.3     1  UNL1        0.1110
     16 C         142.6533  144.5986  155.3053 C.3     1  UNL1        0.0576
     17 C         142.1306  145.3259  154.1019 C.3     1  UNL1        0.0160
     18 C         143.1804  144.6738  153.2519 C.3     1  UNL1        0.0028
     19 C         143.7031  143.9464  154.4551 C.3     1  UNL1        0.0160
     20 O         141.1935  142.7372  166.3242 O.3     1  UNL1       -0.4361
     21 C         141.8979  141.4138  166.3727 C.ar    1  UNL1        0.1473
     22 C         142.4816  140.8286  165.1210 C.ar    1  UNL1        0.0399
     23 C         143.1860  139.5051  165.1696 C.ar    1  UNL1        0.0328
     24 C         143.3067  138.7670  166.4698 C.ar    1  UNL1        0.1403
     25 F         144.0111  137.4436  166.5184 F       1  UNL1       -0.2042
     26 C         142.7230  139.3524  167.7215 C.ar    1  UNL1        0.0328
     27 C         142.0186  140.6758  167.6729 C.ar    1  UNL1        0.0399
@<TRIPOS>BOND
     1     7     8    2
     2     8     1    1
     3     1     2   ar
     4     2     3   ar
     5     3     4   ar
     6     4    20    1
     7    20    21    1
     8    21    22   ar
     9    22    23   ar
    10    23    24   ar
    11    24    25    1
    12    24    26   ar
    13    26    27   ar
    14     4     5   ar
    15     5     6   ar
    16     8     9   am
    17     9    10    1
    18    10    11    1
    19    11    12    1
    20    12    13    1
    21    13    16    1
    22    16    17    1
    23    17    18    1
    24    18    19    1
    25    13    14    1
    26    14    15    1
    27     6     1   ar
    28    15     9    1
    29    27    21   ar
    30    19    16    1
