@<TRIPOS>MOLECULE
*****
 32 35 0 0 0
SMALL
GASTEIGER

@<TRIPOS>ATOM
      1 C         141.5026  143.2451  161.5977 C.ar    1  UNL1        0.0537
      2 C         141.8310  142.2160  160.5571 C.ar    1  UNL1        0.0060
      3 C         142.2852  140.8480  160.9722 C.ar    1  UNL1        0.0173
      4 C         142.4111  140.5092  162.4280 C.ar    1  UNL1        0.0594
      5 C         142.0827  141.5383  163.4686 C.ar    1  UNL1        0.0130
      6 C         141.6285  142.9063  163.0535 C.ar    1  UNL1        0.0057
      7 C         142.2998  140.9192  164.8176 C.ar    1  UNL1       -0.0091
      8 C         142.7623  139.5074  164.6106 C.ar    1  UNL1        0.0331
      9 N         142.8311  139.2540  163.1338 N.ar    1  UNL1       -0.3289
     10 C         143.2469  137.9707  162.4778 C.3     1  UNL1        0.1301
     11 C         143.0611  138.6350  165.7936 C.3     1  UNL1        0.0435
     12 C         142.8973  139.1744  167.1836 C.3     1  UNL1        0.0066
     13 C         142.4348  140.5862  167.3906 C.3     1  UNL1        0.0049
     14 C         142.1360  141.4586  166.2076 C.3     1  UNL1        0.0275
     15 C         142.2710  141.1256  168.7807 C.3     1  UNL1        0.0053
     16 C         142.9533  142.4019  169.1752 C.3     1  UNL1        0.0322
     17 C         142.7895  142.9413  170.5652 C.3     1  UNL1        0.1422
     18 O         141.9435  142.2043  171.5609 O.3     1  UNL1       -0.3538
     19 C         141.2612  140.9280  171.1664 C.3     1  UNL1        0.1422
     20 C         141.4250  140.3886  169.7763 C.3     1  UNL1        0.0322
     21 N         139.9459  145.2977  161.9348 N.am    1  UNL1       -0.2743
     22 C         139.4917  146.6656  161.5197 C.3     1  UNL1        0.1152
     23 C         141.0484  144.6131  161.1826 C.2     1  UNL1        0.2491
     24 O         141.6966  145.2964  160.0152 O.2     1  UNL1       -0.2699
     25 C         139.2977  144.6143  163.1022 C.3     1  UNL1        0.0943
     26 C         137.9026  144.0776  162.9771 C.3     1  UNL1        0.0311
     27 C         137.6703  142.7283  162.3641 C.3     1  UNL1        0.0868
     28 C         138.2559  140.0455  165.2293 C.3     1  UNL1        0.1107
     29 N         137.7907  141.2821  164.5190 N.am    1  UNL1       -0.3027
     30 C         138.1355  141.4918  163.0743 C.2     1  UNL1        0.2226
     31 O         138.9455  140.4649  162.3399 O.2     1  UNL1       -0.2751
     32 H         137.2591  141.9561  165.0011 H       1  UNL1        0.1495
@<TRIPOS>BOND
     1    28    29    1
     2    29    30   am
     3    30    31    2
     4    30    27    1
     5    27    26    1
     6    26    25    1
     7    25    21    1
     8    21    22    1
     9    21    23   am
    10    23    24    2
    11    23     1    1
    12     1     2   ar
    13     2     3   ar
    14     3     4   ar
    15     4     5   ar
    16     5     6   ar
    17     5     7   ar
    18     7     8   ar
    19     8     9   ar
    20     9    10    1
    21     8    11    1
    22    11    12    1
    23    12    13    1
    24    13    15    1
    25    15    16    1
    26    16    17    1
    27    17    18    1
    28    18    19    1
    29    19    20    1
    30    13    14    1
    31     6     1   ar
    32    14     7    1
    33     9     4   ar
    34    20    15    1
    35    29    32    1
@<TRIPOS>MOLECULE
*****
 32 35 0 0 0
SMALL
GASTEIGER

@<TRIPOS>ATOM
      1 C         140.9020  142.7585  161.6142 C.ar    1  UNL1        0.0537
      2 C         141.5148  141.9127  160.5376 C.ar    1  UNL1        0.0060
      3 C         142.2759  140.6721  160.9004 C.ar    1  UNL1        0.0173
      4 C         142.4241  140.2772  162.3398 C.ar    1  UNL1        0.0594
      5 C         141.8114  141.1230  163.4164 C.ar    1  UNL1        0.0130
      6 C         141.0503  142.3636  163.0536 C.ar    1  UNL1        0.0057
      7 C         142.1213  140.4863  164.7389 C.ar    1  UNL1       -0.0091
      8 C         142.9256  139.2471  164.4795 C.ar    1  UNL1        0.0331
      9 N         143.1128  139.1179  162.9968 N.ar    1  UNL1       -0.3289
     10 C         143.8579  138.0217  162.2944 C.3     1  UNL1        0.1301
     11 C         143.3837  138.3964  165.6268 C.3     1  UNL1        0.0435
     12 C         143.0374  138.7850  167.0336 C.3     1  UNL1        0.0066
     13 C         142.2331  140.0242  167.2930 C.3     1  UNL1        0.0049
     14 C         141.7750  140.8749  166.1456 C.3     1  UNL1        0.0275
     15 C         141.8868  140.4128  168.6998 C.3     1  UNL1        0.0053
     16 C         142.7723  141.3581  169.4564 C.3     1  UNL1        0.0322
     17 C         142.4260  141.7467  170.8632 C.3     1  UNL1        0.1422
     18 O         141.1942  141.1899  171.5134 O.3     1  UNL1       -0.3538
     19 C         140.3087  140.2447  170.7569 C.3     1  UNL1        0.1422
     20 C         140.6550  139.8561  169.3501 C.3     1  UNL1        0.0322
     21 N         140.2662  145.2305  162.0985 N.am    1  UNL1       -0.2743
     22 C         139.5052  146.4711  161.7357 C.3     1  UNL1        0.1152
     23 C         140.1409  143.9991  161.2513 C.2     1  UNL1        0.2491
     24 O         139.2545  144.0082  160.0413 O.2     1  UNL1       -0.2699
     25 C         141.1527  145.2214  163.3086 C.3     1  UNL1        0.0943
     26 C         142.6217  145.4880  163.1642 C.3     1  UNL1        0.0311
     27 C         143.6064  144.7430  164.0160 C.3     1  UNL1        0.0868
     28 C         145.8169  141.4572  163.7580 C.3     1  UNL1        0.1107
     29 N         145.0323  142.5956  164.3398 N.am    1  UNL1       -0.3027
     30 C         144.3910  143.6047  163.4341 C.2     1  UNL1        0.2226
     31 O         144.5344  143.4756  161.9466 O.2     1  UNL1       -0.2751
     32 H         144.9382  142.6803  165.3161 H       1  UNL1        0.1495
@<TRIPOS>BOND
     1    28    29    1
     2    29    30   am
     3    30    31    2
     4    30    27    1
     5    27    26    1
     6    26    25    1
     7    25    21    1
     8    21    22    1
     9    21    23   am
    10    23    24    2
    11    23     1    1
    12     1     2   ar
    13     2     3   ar
    14     3     4   ar
    15     4     5   ar
    16     5     6   ar
    17     5     7   ar
    18     7     8   ar
    19     8     9   ar
    20     9    10    1
    21     8    11    1
    22    11    12    1
    23    12    13    1
    24    13    15    1
    25    15    16    1
    26    16    17    1
    27    17    18    1
    28    18    19    1
    29    19    20    1
    30    13    14    1
    31     6     1   ar
    32    14     7    1
    33     9     4   ar
    34    20    15    1
    35    29    32    1
@<TRIPOS>MOLECULE
*****
 32 35 0 0 0
SMALL
GASTEIGER

@<TRIPOS>ATOM
      1 C         140.0622  142.9875  160.7448 C.ar    1  UNL1        0.0537
      2 C         139.4905  141.8091  160.0138 C.ar    1  UNL1        0.0060
      3 C         139.1651  140.5493  160.7602 C.ar    1  UNL1        0.0173
      4 C         139.4114  140.4679  162.2375 C.ar    1  UNL1        0.0594
      5 C         139.9831  141.6463  162.9685 C.ar    1  UNL1        0.0130
      6 C         140.3085  142.9061  162.2222 C.ar    1  UNL1        0.0057
      7 C         140.1164  141.2741  164.4156 C.ar    1  UNL1       -0.0091
      8 C         139.6270  139.8656  164.5788 C.ar    1  UNL1        0.0331
      9 N         139.1913  139.3674  163.2327 N.ar    1  UNL1       -0.3289
     10 C         138.6334  138.0073  162.9341 C.3     1  UNL1        0.1301
     11 C         139.6413  139.2187  165.9320 C.3     1  UNL1        0.0435
     12 C         140.1451  139.9803  167.1220 C.3     1  UNL1        0.0066
     13 C         140.6345  141.3888  166.9588 C.3     1  UNL1        0.0049
     14 C         140.6201  142.0356  165.6055 C.3     1  UNL1        0.0275
     15 C         141.1382  142.1504  168.1489 C.3     1  UNL1        0.0053
     16 C         142.5164  141.8873  168.6792 C.3     1  UNL1        0.0322
     17 C         143.0202  142.6489  169.8692 C.3     1  UNL1        0.1422
     18 O         142.1456  143.6737  170.5290 O.3     1  UNL1       -0.3538
     19 C         140.7674  143.9367  169.9987 C.3     1  UNL1        0.1422
     20 C         140.2636  143.1751  168.8086 C.3     1  UNL1        0.0322
     21 N         141.5029  144.2580  158.9955 N.am    1  UNL1       -0.2743
     22 C         141.8283  145.5178  158.2491 C.3     1  UNL1        0.1152
     23 C         140.3876  144.2473  159.9985 C.2     1  UNL1        0.2491
     24 O         139.5978  145.4963  160.2551 O.2     1  UNL1       -0.2699
     25 C         142.2928  143.0089  158.7388 C.3     1  UNL1        0.0943
     26 C         143.7016  142.8958  159.2412 C.3     1  UNL1        0.0311
     27 C         143.9834  142.1811  160.5295 C.3     1  UNL1        0.0868
     28 C         143.8201  145.0628  163.2533 C.3     1  UNL1        0.1107
     29 N         143.5559  144.2780  162.0025 N.am    1  UNL1       -0.3027
     30 C         144.2476  142.9657  161.7803 C.2     1  UNL1        0.2226
     31 O         145.2034  142.4381  162.8089 O.2     1  UNL1       -0.2751
     32 H         142.9286  144.6243  161.3274 H       1  UNL1        0.1495
@<TRIPOS>BOND
     1    28    29    1
     2    29    30   am
     3    30    31    2
     4    30    27    1
     5    27    26    1
     6    26    25    1
     7    25    21    1
     8    21    22    1
     9    21    23   am
    10    23    24    2
    11    23     1    1
    12     1     2   ar
    13     2     3   ar
    14     3     4   ar
    15     4     5   ar
    16     5     6   ar
    17     5     7   ar
    18     7     8   ar
    19     8     9   ar
    20     9    10    1
    21     8    11    1
    22    11    12    1
    23    12    13    1
    24    13    15    1
    25    15    16    1
    26    16    17    1
    27    17    18    1
    28    18    19    1
    29    19    20    1
    30    13    14    1
    31     6     1   ar
    32    14     7    1
    33     9     4   ar
    34    20    15    1
    35    29    32    1
@<TRIPOS>MOLECULE
*****
 32 35 0 0 0
SMALL
GASTEIGER

@<TRIPOS>ATOM
      1 C         141.5694  141.6215  160.8115 C.ar    1  UNL1        0.0537
      2 C         140.8792  140.4519  160.1747 C.ar    1  UNL1        0.0060
      3 C         140.1564  139.4520  161.0278 C.ar    1  UNL1        0.0173
      4 C         140.1239  139.6217  162.5178 C.ar    1  UNL1        0.0594
      5 C         140.8142  140.7912  163.1546 C.ar    1  UNL1        0.0130
      6 C         141.5369  141.7912  162.3015 C.ar    1  UNL1        0.0057
      7 C         140.6128  140.6968  164.6381 C.ar    1  UNL1       -0.0091
      8 C         139.7981  139.4689  164.9180 C.ar    1  UNL1        0.0331
      9 N         139.4960  138.8044  163.6076 N.ar    1  UNL1       -0.3289
     10 C         138.7048  137.5439  163.4199 C.3     1  UNL1        0.1301
     11 C         139.4366  139.1144  166.3299 C.3     1  UNL1        0.0435
     12 C         139.8898  139.9879  167.4620 C.3     1  UNL1        0.0066
     13 C         140.7045  141.2159  167.1821 C.3     1  UNL1        0.0049
     14 C         141.0660  141.5703  165.7701 C.3     1  UNL1        0.0275
     15 C         141.1577  142.0894  168.3142 C.3     1  UNL1        0.0053
     16 C         140.2422  143.1448  168.8601 C.3     1  UNL1        0.0322
     17 C         140.6954  144.0184  169.9921 C.3     1  UNL1        0.1422
     18 O         142.0642  143.8365  170.5783 O.3     1  UNL1       -0.3538
     19 C         142.9797  142.7811  170.0324 C.3     1  UNL1        0.1422
     20 C         142.5265  141.9075  168.9004 C.3     1  UNL1        0.0322
     21 N         141.5446  143.7756  159.3593 N.am    1  UNL1       -0.2743
     22 C         142.2673  144.7756  158.5061 C.3     1  UNL1        0.1152
     23 C         142.2921  142.6214  159.9584 C.2     1  UNL1        0.2491
     24 O         143.7623  142.4671  159.7043 O.2     1  UNL1       -0.2699
     25 C         140.0743  143.9300  159.6133 C.3     1  UNL1        0.0943
     26 C         139.5937  144.4968  160.9163 C.3     1  UNL1        0.0311
     27 C         140.3662  145.5936  161.5874 C.3     1  UNL1        0.0868
     28 C         143.8015  144.9028  163.4505 C.3     1  UNL1        0.1107
     29 N         142.8180  145.2327  162.3669 N.am    1  UNL1       -0.3027
     30 C         141.3495  145.2638  162.6710 C.2     1  UNL1        0.2226
     31 O         140.8644  144.9650  164.0586 O.2     1  UNL1       -0.2751
     32 H         143.1364  145.4287  161.4562 H       1  UNL1        0.1495
@<TRIPOS>BOND
     1    28    29    1
     2    29    30   am
     3    30    31    2
     4    30    27    1
     5    27    26    1
     6    26    25    1
     7    25    21    1
     8    21    22    1
     9    21    23   am
    10    23    24    2
    11    23     1    1
    12     1     2   ar
    13     2     3   ar
    14     3     4   ar
    15     4     5   ar
    16     5     6   ar
    17     5     7   ar
    18     7     8   ar
    19     8     9   ar
    20     9    10    1
    21     8    11    1
    22    11    12    1
    23    12    13    1
    24    13    15    1
    25    15    16    1
    26    16    17    1
    27    17    18    1
    28    18    19    1
    29    19    20    1
    30    13    14    1
    31     6     1   ar
    32    14     7    1
    33     9     4   ar
    34    20    15    1
    35    29    32    1
@<TRIPOS>MOLECULE
*****
 32 35 0 0 0
SMALL
GASTEIGER

@<TRIPOS>ATOM
      1 C         140.5015  140.4593  160.0402 C.ar    1  UNL1        0.0537
      2 C         140.0788  141.6981  159.3075 C.ar    1  UNL1        0.0060
      3 C         139.7569  142.9482  160.0713 C.ar    1  UNL1        0.0173
      4 C         139.8577  142.9597  161.5679 C.ar    1  UNL1        0.0594
      5 C         140.2803  141.7210  162.3006 C.ar    1  UNL1        0.0130
      6 C         140.6022  140.4708  161.5367 C.ar    1  UNL1        0.0057
      7 C         140.2895  142.0309  163.7682 C.ar    1  UNL1       -0.0091
      8 C         139.8725  143.4612  163.9425 C.ar    1  UNL1        0.0331
      9 N         139.6056  144.0352  162.5826 N.ar    1  UNL1       -0.3289
     10 C         139.1642  145.4384  162.2890 C.3     1  UNL1        0.1301
     11 C         139.7897  144.0561  165.3169 C.3     1  UNL1        0.0435
     12 C         140.1239  143.2207  166.5172 C.3     1  UNL1        0.0066
     13 C         140.5408  141.7904  166.3429 C.3     1  UNL1        0.0049
     14 C         140.6236  141.1955  164.9684 C.3     1  UNL1        0.0275
     15 C         140.8750  140.9550  167.5431 C.3     1  UNL1        0.0053
     16 C         139.9090  140.8655  168.6871 C.3     1  UNL1        0.0322
     17 C         140.2432  140.0301  169.8873 C.3     1  UNL1        0.1422
     18 O         141.5435  139.2842  169.9434 O.3     1  UNL1       -0.3538
     19 C         142.5095  139.3737  168.7994 C.3     1  UNL1        0.1422
     20 C         142.1753  140.2091  167.5992 C.3     1  UNL1        0.0322
     21 N         142.2494  138.8726  158.9554 N.am    1  UNL1       -0.2743
     22 C         142.5713  137.6224  158.1916 C.3     1  UNL1        0.1152
     23 C         140.8234  139.2092  159.2764 C.2     1  UNL1        0.2491
     24 O         139.7193  138.2956  158.8335 O.2     1  UNL1       -0.2699
     25 C         143.3537  139.7862  159.3983 C.3     1  UNL1        0.0943
     26 C         144.1098  139.4921  160.6600 C.3     1  UNL1        0.0311
     27 C         143.8970  138.1912  161.3759 C.3     1  UNL1        0.0868
     28 C         140.9416  137.2224  163.8411 C.3     1  UNL1        0.1107
     29 N         141.8082  137.2723  162.6176 N.am    1  UNL1       -0.3027
     30 C         143.0306  138.1414  162.5993 C.2     1  UNL1        0.2226
     31 O         143.3864  138.9607  163.8043 O.2     1  UNL1       -0.2751
     32 H         141.5746  136.7345  161.8267 H       1  UNL1        0.1495
@<TRIPOS>BOND
     1    28    29    1
     2    29    30   am
     3    30    31    2
     4    30    27    1
     5    27    26    1
     6    26    25    1
     7    25    21    1
     8    21    22    1
     9    21    23   am
    10    23    24    2
    11    23     1    1
    12     1     2   ar
    13     2     3   ar
    14     3     4   ar
    15     4     5   ar
    16     5     6   ar
    17     5     7   ar
    18     7     8   ar
    19     8     9   ar
    20     9    10    1
    21     8    11    1
    22    11    12    1
    23    12    13    1
    24    13    15    1
    25    15    16    1
    26    16    17    1
    27    17    18    1
    28    18    19    1
    29    19    20    1
    30    13    14    1
    31     6     1   ar
    32    14     7    1
    33     9     4   ar
    34    20    15    1
    35    29    32    1
@<TRIPOS>MOLECULE
*****
 32 35 0 0 0
SMALL
GASTEIGER

@<TRIPOS>ATOM
      1 C         141.9358  140.9893  160.1728 C.ar    1  UNL1        0.0537
      2 C         141.4332  142.1914  159.4297 C.ar    1  UNL1        0.0060
      3 C         140.7830  143.3175  160.1774 C.ar    1  UNL1        0.0173
      4 C         140.6355  143.2416  161.6681 C.ar    1  UNL1        0.0594
      5 C         141.1382  142.0395  162.4112 C.ar    1  UNL1        0.0130
      6 C         141.7884  140.9134  161.6636 C.ar    1  UNL1        0.0057
      7 C         140.8555  142.2447  163.8701 C.ar    1  UNL1       -0.0091
      8 C         140.1782  143.5736  164.0285 C.ar    1  UNL1        0.0331
      9 N         140.0422  144.1897  162.6676 N.ar    1  UNL1       -0.3289
     10 C         139.4218  145.5204  162.3602 C.3     1  UNL1        0.1301
     11 C         139.7727  144.0510  165.3914 C.3     1  UNL1        0.0435
     12 C         140.0446  143.1995  166.5960 C.3     1  UNL1        0.0066
     13 C         140.7220  141.8706  166.4375 C.3     1  UNL1        0.0049
     14 C         141.1274  141.3932  165.0746 C.3     1  UNL1        0.0275
     15 C         140.9939  141.0190  167.6421 C.3     1  UNL1        0.0053
     16 C         139.9884  140.9481  168.7529 C.3     1  UNL1        0.0322
     17 C         140.2604  140.0966  169.9575 C.3     1  UNL1        0.1422
     18 O         141.5378  139.3159  170.0512 O.3     1  UNL1       -0.3538
     19 C         142.5433  139.3867  168.9403 C.3     1  UNL1        0.1422
     20 C         142.2714  140.2383  167.7358 C.3     1  UNL1        0.0322
     21 N         141.7753  138.6711  159.0109 N.am    1  UNL1       -0.2743
     22 C         142.4254  137.5449  158.2633 C.3     1  UNL1        0.1152
     23 C         142.5860  139.8631  159.4252 C.2     1  UNL1        0.2491
     24 O         144.0470  139.9290  159.0917 O.2     1  UNL1       -0.2699
     25 C         140.3142  138.6051  159.3444 C.3     1  UNL1        0.0943
     26 C         139.8726  138.0875  160.6812 C.3     1  UNL1        0.0311
     27 C         138.4840  138.3696  161.1733 C.3     1  UNL1        0.0868
     28 C         137.2318  141.5992  163.1103 C.3     1  UNL1        0.1107
     29 N         137.4501  140.6004  162.0126 N.am    1  UNL1       -0.3027
     30 C         138.2657  139.3683  162.2709 C.2     1  UNL1        0.2226
     31 O         138.8630  139.1350  163.6270 O.2     1  UNL1       -0.2751
     32 H         137.0581  140.7536  161.1226 H       1  UNL1        0.1495
@<TRIPOS>BOND
     1    28    29    1
     2    29    30   am
     3    30    31    2
     4    30    27    1
     5    27    26    1
     6    26    25    1
     7    25    21    1
     8    21    22    1
     9    21    23   am
    10    23    24    2
    11    23     1    1
    12     1     2   ar
    13     2     3   ar
    14     3     4   ar
    15     4     5   ar
    16     5     6   ar
    17     5     7   ar
    18     7     8   ar
    19     8     9   ar
    20     9    10    1
    21     8    11    1
    22    11    12    1
    23    12    13    1
    24    13    15    1
    25    15    16    1
    26    16    17    1
    27    17    18    1
    28    18    19    1
    29    19    20    1
    30    13    14    1
    31     6     1   ar
    32    14     7    1
    33     9     4   ar
    34    20    15    1
    35    29    32    1
@<TRIPOS>MOLECULE
*****
 32 35 0 0 0
SMALL
GASTEIGER

@<TRIPOS>ATOM
      1 C         140.0875  141.8341  160.8023 C.ar    1  UNL1        0.0537
      2 C         141.3561  141.9743  160.0143 C.ar    1  UNL1        0.0060
      3 C         142.6652  142.1490  160.7254 C.ar    1  UNL1        0.0173
      4 C         142.7057  142.1836  162.2244 C.ar    1  UNL1        0.0594
      5 C         141.4371  142.0435  163.0124 C.ar    1  UNL1        0.0130
      6 C         140.1280  141.8687  162.3013 C.ar    1  UNL1        0.0057
      7 C         141.7862  142.1151  164.4695 C.ar    1  UNL1       -0.0091
      8 C         143.2705  142.2996  164.5820 C.ar    1  UNL1        0.0331
      9 N         143.8388  142.3419  163.1945 N.ar    1  UNL1       -0.3289
     10 C         145.2861  142.5126  162.8393 C.3     1  UNL1        0.1301
     11 C         143.9129  142.4051  165.9333 C.3     1  UNL1        0.0435
     12 C         143.0708  142.3263  167.1722 C.3     1  UNL1        0.0066
     13 C         141.5865  142.1418  167.0597 C.3     1  UNL1        0.0049
     14 C         140.9442  142.0363  165.7083 C.3     1  UNL1        0.0275
     15 C         140.7445  142.0630  168.2986 C.3     1  UNL1        0.0053
     16 C         139.9827  140.8087  168.6090 C.3     1  UNL1        0.0322
     17 C         139.1406  140.7298  169.8479 C.3     1  UNL1        0.1422
     18 O         139.0605  141.9053  170.7763 O.3     1  UNL1       -0.3538
     19 C         139.8223  143.1596  170.4659 C.3     1  UNL1        0.1422
     20 C         140.6643  143.2385  169.2270 C.3     1  UNL1        0.0322
     21 N         138.0945  140.3243  160.0961 N.am    1  UNL1       -0.2743
     22 C         136.7854  140.1496  159.3850 C.3     1  UNL1        0.1152
     23 C         138.7783  141.6594  160.0912 C.2     1  UNL1        0.2491
     24 O         138.1529  142.8197  159.3753 O.2     1  UNL1       -0.2699
     25 C         138.7199  139.1640  160.8121 C.3     1  UNL1        0.0943
     26 C         138.1050  138.6438  162.0774 C.3     1  UNL1        0.0311
     27 C         138.8764  137.7026  162.9545 C.3     1  UNL1        0.0868
     28 C         142.5019  138.6122  164.2879 C.3     1  UNL1        0.1107
     29 N         141.0081  138.5051  164.2041 N.am    1  UNL1       -0.3027
     30 C         140.3702  137.8096  163.0382 C.2     1  UNL1        0.2226
     31 O         141.2262  137.2212  161.9560 O.2     1  UNL1       -0.2751
     32 H         140.4463  138.8913  164.9144 H       1  UNL1        0.1495
@<TRIPOS>BOND
     1    28    29    1
     2    29    30   am
     3    30    31    2
     4    30    27    1
     5    27    26    1
     6    26    25    1
     7    25    21    1
     8    21    22    1
     9    21    23   am
    10    23    24    2
    11    23     1    1
    12     1     2   ar
    13     2     3   ar
    14     3     4   ar
    15     4     5   ar
    16     5     6   ar
    17     5     7   ar
    18     7     8   ar
    19     8     9   ar
    20     9    10    1
    21     8    11    1
    22    11    12    1
    23    12    13    1
    24    13    15    1
    25    15    16    1
    26    16    17    1
    27    17    18    1
    28    18    19    1
    29    19    20    1
    30    13    14    1
    31     6     1   ar
    32    14     7    1
    33     9     4   ar
    34    20    15    1
    35    29    32    1
@<TRIPOS>MOLECULE
*****
 32 35 0 0 0
SMALL
GASTEIGER

@<TRIPOS>ATOM
      1 C         140.3413  140.6570  167.1706 C.ar    1  UNL1        0.0537
      2 C         141.5231  140.9840  168.0345 C.ar    1  UNL1        0.0060
      3 C         142.6437  141.8181  167.4880 C.ar    1  UNL1        0.0173
      4 C         142.5825  142.3250  166.0776 C.ar    1  UNL1        0.0594
      5 C         141.4007  141.9980  165.2137 C.ar    1  UNL1        0.0130
      6 C         140.2801  141.1640  165.7602 C.ar    1  UNL1        0.0057
      7 C         141.6172  142.6333  163.8722 C.ar    1  UNL1       -0.0091
      8 C         142.9328  143.3529  163.9070 C.ar    1  UNL1        0.0331
      9 N         143.5294  143.1624  165.2700 N.ar    1  UNL1       -0.3289
     10 C         144.8424  143.7127  165.7426 C.3     1  UNL1        0.1301
     11 C         143.4176  144.0887  162.6932 C.3     1  UNL1        0.0435
     12 C         142.5867  144.1049  161.4444 C.3     1  UNL1        0.0066
     13 C         141.2711  143.3852  161.4096 C.3     1  UNL1        0.0049
     14 C         140.7863  142.6494  162.6235 C.3     1  UNL1        0.0275
     15 C         140.4402  143.4014  160.1608 C.3     1  UNL1        0.0053
     16 C         139.2743  142.4676  160.0236 C.3     1  UNL1        0.0322
     17 C         138.4434  142.4837  158.7748 C.3     1  UNL1        0.1422
     18 O         138.7785  143.4337  157.6632 O.3     1  UNL1       -0.3538
     19 C         139.9443  144.3675  157.8005 C.3     1  UNL1        0.1422
     20 C         140.7752  144.3513  159.0493 C.3     1  UNL1        0.0322
     21 N         138.4315  138.9346  166.8017 N.am    1  UNL1       -0.2743
     22 C         137.3109  138.1006  167.3481 C.3     1  UNL1        0.1152
     23 C         139.2207  139.8229  167.7171 C.2     1  UNL1        0.2491
     24 O         138.8893  139.8773  169.1789 O.2     1  UNL1       -0.2699
     25 C         138.7630  138.8802  165.3397 C.3     1  UNL1        0.0943
     26 C         139.2778  137.6081  164.7342 C.3     1  UNL1        0.0311
     27 C         140.7527  137.3368  164.7003 C.3     1  UNL1        0.0868
     28 C         143.6478  138.7374  162.3751 C.3     1  UNL1        0.1107
     29 N         142.8516  138.4032  163.6017 N.am    1  UNL1       -0.3027
     30 C         141.5488  137.6709  163.4737 C.2     1  UNL1        0.2226
     31 O         141.0421  137.2728  162.1192 O.2     1  UNL1       -0.2751
     32 H         143.1842  138.6644  164.4907 H       1  UNL1        0.1495
@<TRIPOS>BOND
     1    28    29    1
     2    29    30   am
     3    30    31    2
     4    30    27    1
     5    27    26    1
     6    26    25    1
     7    25    21    1
     8    21    22    1
     9    21    23   am
    10    23    24    2
    11    23     1    1
    12     1     2   ar
    13     2     3   ar
    14     3     4   ar
    15     4     5   ar
    16     5     6   ar
    17     5     7   ar
    18     7     8   ar
    19     8     9   ar
    20     9    10    1
    21     8    11    1
    22    11    12    1
    23    12    13    1
    24    13    15    1
    25    15    16    1
    26    16    17    1
    27    17    18    1
    28    18    19    1
    29    19    20    1
    30    13    14    1
    31     6     1   ar
    32    14     7    1
    33     9     4   ar
    34    20    15    1
    35    29    32    1
@<TRIPOS>MOLECULE
*****
 32 35 0 0 0
SMALL
GASTEIGER

@<TRIPOS>ATOM
      1 C         140.5382  140.4808  160.1300 C.ar    1  UNL1        0.0537
      2 C         140.0874  141.7121  159.4017 C.ar    1  UNL1        0.0060
      3 C         139.7314  142.9500  160.1704 C.ar    1  UNL1        0.0173
      4 C         139.8263  142.9566  161.6673 C.ar    1  UNL1        0.0594
      5 C         140.2771  141.7252  162.3956 C.ar    1  UNL1        0.0130
      6 C         140.6331  140.4873  161.6269 C.ar    1  UNL1        0.0057
      7 C         140.2731  142.0280  163.8648 C.ar    1  UNL1       -0.0091
      8 C         139.8198  143.4465  164.0445 C.ar    1  UNL1        0.0331
      9 N         139.5436  144.0204  162.6864 N.ar    1  UNL1       -0.3289
     10 C         139.0683  145.4135  162.3979 C.3     1  UNL1        0.1301
     11 C         139.7170  144.0323  165.4214 C.3     1  UNL1        0.0435
     12 C         140.0676  143.1996  166.6188 C.3     1  UNL1        0.0066
     13 C         140.5209  141.7811  166.4392 C.3     1  UNL1        0.0049
     14 C         140.6237  141.1953  165.0621 C.3     1  UNL1        0.0275
     15 C         140.8715  140.9484  167.6366 C.3     1  UNL1        0.0053
     16 C         139.9290  140.8753  168.8012 C.3     1  UNL1        0.0322
     17 C         140.2796  140.0426  169.9986 C.3     1  UNL1        0.1422
     18 O         141.5727  139.2830  170.0313 O.3     1  UNL1       -0.3538
     19 C         142.5152  139.3562  168.8667 C.3     1  UNL1        0.1422
     20 C         142.1646  140.1889  167.6693 C.3     1  UNL1        0.0322
     21 N         142.3334  138.9079  159.1037 N.am    1  UNL1       -0.2743
     22 C         142.6893  137.6700  158.3350 C.3     1  UNL1        0.1152
     23 C         140.8942  139.2428  159.3613 C.2     1  UNL1        0.2491
     24 O         139.8109  138.3399  158.8503 O.2     1  UNL1       -0.2699
     25 C         143.4167  139.8109  159.6147 C.3     1  UNL1        0.0943
     26 C         143.9621  140.8987  158.7377 C.3     1  UNL1        0.0311
     27 C         143.7599  142.3369  159.1132 C.3     1  UNL1        0.0868
     28 C         143.3164  144.2730  162.5490 C.3     1  UNL1        0.1107
     29 N         143.0950  143.8290  161.1334 N.am    1  UNL1       -0.3027
     30 C         143.9813  142.7808  160.5288 C.2     1  UNL1        0.2226
     31 O         145.0890  142.1763  161.3397 O.2     1  UNL1       -0.2751
     32 H         142.3680  144.2257  160.6011 H       1  UNL1        0.1495
@<TRIPOS>BOND
     1    28    29    1
     2    29    30   am
     3    30    31    2
     4    30    27    1
     5    27    26    1
     6    26    25    1
     7    25    21    1
     8    21    22    1
     9    21    23   am
    10    23    24    2
    11    23     1    1
    12     1     2   ar
    13     2     3   ar
    14     3     4   ar
    15     4     5   ar
    16     5     6   ar
    17     5     7   ar
    18     7     8   ar
    19     8     9   ar
    20     9    10    1
    21     8    11    1
    22    11    12    1
    23    12    13    1
    24    13    15    1
    25    15    16    1
    26    16    17    1
    27    17    18    1
    28    18    19    1
    29    19    20    1
    30    13    14    1
    31     6     1   ar
    32    14     7    1
    33     9     4   ar
    34    20    15    1
    35    29    32    1
