@<TRIPOS>MOLECULE
*****
 35 38 0 0 0
SMALL
GASTEIGER

@<TRIPOS>ATOM
      1 C         138.5892  143.0259  161.2456 C.ar    1  UNL1        0.1400
      2 C         137.7452  142.5201  162.3777 C.ar    1  UNL1        0.0382
      3 C         138.2062  142.6971  163.7942 C.ar    1  UNL1        0.0178
      4 C         139.5112  143.3798  164.0784 C.ar    1  UNL1        0.0508
      5 C         140.3553  143.8856  162.9461 C.ar    1  UNL1        0.0192
      6 C         139.8943  143.7086  161.5298 C.ar    1  UNL1        0.0525
      7 C         140.7383  144.2143  160.3976 C.ar    1  UNL1        0.0825
      8 C         140.4193  145.3837  159.5139 C.ar    1  UNL1        0.0413
      9 C         141.5334  145.5315  158.5205 C.ar    1  UNL1        0.1217
     10 N         142.5410  144.4535  158.7901 N.ar    1  UNL1       -0.1676
     11 N         142.0496  143.6394  159.9502 N.ar    1  UNL1       -0.2487
     12 C         142.7470  142.4579  160.5566 C.3     1  UNL1        0.1537
     13 N         139.9722  143.5568  165.4947 N.am    1  UNL1       -0.2804
     14 C         140.7716  142.4781  166.1636 C.2     1  UNL1        0.2496
     15 O         141.1100  141.2225  165.4160 O.2     1  UNL1       -0.2698
     16 H         139.7501  144.3809  165.9854 H       1  UNL1        0.1552
     17 C         141.2326  142.6551  167.5800 C.ar    1  UNL1        0.0559
     18 C         140.2832  143.1748  168.6184 C.ar    1  UNL1        0.0047
     19 C         140.7442  143.3517  170.0347 C.ar    1  UNL1        0.0025
     20 C         142.1548  143.0089  170.4127 C.ar    1  UNL1        0.0296
     21 C         143.1042  142.4892  169.3743 C.ar    1  UNL1        0.1403
     22 F         144.5148  142.1464  169.7522 F       1  UNL1       -0.2042
     23 C         142.6432  142.3123  167.9580 C.ar    1  UNL1        0.0342
     24 O         138.1283  142.8489  159.8291 O.3     1  UNL1       -0.4739
     25 C         138.7568  141.7990  158.9615 C.3     1  UNL1        0.2226
     26 C         138.4609  140.3489  159.2053 C.3     1  UNL1        0.1201
     27 C         141.5515  137.7564  164.7711 C.3     1  UNL1        0.0948
     28 C         140.1059  137.7786  164.3714 C.2     1  UNL1        0.2262
     29 O         139.0716  137.1583  165.2632 O.2     1  UNL1       -0.2749
     30 N         139.6946  138.4212  163.0799 N.am    1  UNL1       -0.2767
     31 C         140.7290  139.0415  162.1880 C.3     1  UNL1        0.1107
     32 C         140.3177  139.6840  160.8965 C.3     1  UNL1        0.0940
     33 N         138.8722  139.7063  160.4968 N.3     1  UNL1       -0.2666
     34 C         137.8378  139.0860  161.3886 C.3     1  UNL1        0.0940
     35 C         138.2491  138.4434  162.6802 C.3     1  UNL1        0.1107
@<TRIPOS>BOND
     1    27    28    1
     2    28    29    2
     3    28    30   am
     4    30    31    1
     5    31    32    1
     6    32    33    1
     7    33    26    1
     8    26    25    1
     9    25    24    1
    10    24     1    1
    11     1     2   ar
    12     2     3   ar
    13     3     4   ar
    14     4    13    1
    15    13    14   am
    16    14    15    2
    17    14    17    1
    18    17    18   ar
    19    18    19   ar
    20    19    20   ar
    21    20    21   ar
    22    21    22    1
    23    21    23   ar
    24     4     5   ar
    25     5     6   ar
    26     6     7    1
    27     7     8   ar
    28     8     9   ar
    29     9    10   ar
    30    10    11   ar
    31    11    12    1
    32    33    34    1
    33    34    35    1
    34    35    30    1
    35     6     1   ar
    36    11     7   ar
    37    23    17   ar
    38    13    16    1
@<TRIPOS>MOLECULE
*****
 35 38 0 0 0
SMALL
GASTEIGER

@<TRIPOS>ATOM
      1 C         140.4672  138.1238  162.1869 C.ar    1  UNL1        0.1400
      2 C         139.5759  137.5906  163.2690 C.ar    1  UNL1        0.0382
      3 C         139.7218  138.0911  164.6755 C.ar    1  UNL1        0.0178
      4 C         140.7592  139.1249  164.9998 C.ar    1  UNL1        0.0508
      5 C         141.6506  139.6582  163.9175 C.ar    1  UNL1        0.0192
      6 C         141.5046  139.1576  162.5111 C.ar    1  UNL1        0.0525
      7 C         142.3960  139.6908  161.4289 C.ar    1  UNL1        0.0825
      8 C         142.2706  141.0290  160.7629 C.ar    1  UNL1        0.0413
      9 C         143.3664  141.1446  159.7451 C.ar    1  UNL1        0.1217
     10 N         144.1690  139.8779  159.7820 N.ar    1  UNL1       -0.1676
     11 N         143.5692  138.9794  160.8227 N.ar    1  UNL1       -0.2487
     12 C         144.0570  137.6099  161.1923 C.3     1  UNL1        0.1537
     13 N         140.9052  139.6255  166.4062 N.am    1  UNL1       -0.2804
     14 C         140.1943  140.8747  166.8352 C.2     1  UNL1        0.2496
     15 O         139.3374  141.6233  165.8578 O.2     1  UNL1       -0.2698
     16 H         141.4676  139.1342  167.0477 H       1  UNL1        0.1552
     17 C         140.3403  141.3753  168.2417 C.ar    1  UNL1        0.0559
     18 C         140.3731  140.4038  169.3840 C.ar    1  UNL1        0.0047
     19 C         140.5190  140.9045  170.7904 C.ar    1  UNL1        0.0025
     20 C         140.6322  142.3767  171.0545 C.ar    1  UNL1        0.0296
     21 C         140.5994  143.3482  169.9122 C.ar    1  UNL1        0.1403
     22 F         140.7126  144.8205  170.1762 F       1  UNL1       -0.2042
     23 C         140.4534  142.8476  168.5058 C.ar    1  UNL1        0.0342
     24 O         140.3212  137.6232  160.7804 O.3     1  UNL1       -0.4739
     25 C         139.5903  138.4480  159.7628 C.3     1  UNL1        0.2226
     26 C         138.2807  139.0881  160.1168 C.3     1  UNL1        0.1201
     27 C         137.6572  144.4377  164.3879 C.3     1  UNL1        0.0948
     28 C         138.1953  144.3546  162.9902 C.2     1  UNL1        0.2262
     29 O         138.7121  145.5881  162.3110 O.2     1  UNL1       -0.2749
     30 N         138.2167  143.0380  162.2719 N.am    1  UNL1       -0.2767
     31 C         137.6999  141.8045  162.9512 C.3     1  UNL1        0.1107
     32 C         137.7213  140.4879  162.2328 C.3     1  UNL1        0.0940
     33 N         138.2594  140.4047  160.8351 N.3     1  UNL1       -0.2666
     34 C         138.7762  141.6382  160.1559 C.3     1  UNL1        0.0940
     35 C         138.7548  142.9548  160.8742 C.3     1  UNL1        0.1107
@<TRIPOS>BOND
     1    27    28    1
     2    28    29    2
     3    28    30   am
     4    30    31    1
     5    31    32    1
     6    32    33    1
     7    33    26    1
     8    26    25    1
     9    25    24    1
    10    24     1    1
    11     1     2   ar
    12     2     3   ar
    13     3     4   ar
    14     4    13    1
    15    13    14   am
    16    14    15    2
    17    14    17    1
    18    17    18   ar
    19    18    19   ar
    20    19    20   ar
    21    20    21   ar
    22    21    22    1
    23    21    23   ar
    24     4     5   ar
    25     5     6   ar
    26     6     7    1
    27     7     8   ar
    28     8     9   ar
    29     9    10   ar
    30    10    11   ar
    31    11    12    1
    32    33    34    1
    33    34    35    1
    34    35    30    1
    35     6     1   ar
    36    11     7   ar
    37    23    17   ar
    38    13    16    1
@<TRIPOS>MOLECULE
*****
 35 38 0 0 0
SMALL
GASTEIGER

@<TRIPOS>ATOM
      1 C         139.1604  143.1591  160.6743 C.ar    1  UNL1        0.1400
      2 C         138.1449  143.2244  161.7764 C.ar    1  UNL1        0.0382
      3 C         138.5927  143.3578  163.2018 C.ar    1  UNL1        0.0178
      4 C         140.0559  143.4260  163.5251 C.ar    1  UNL1        0.0508
      5 C         141.0713  143.3606  162.4229 C.ar    1  UNL1        0.0192
      6 C         140.6235  143.2272  160.9976 C.ar    1  UNL1        0.0525
      7 C         141.6390  143.1619  159.8954 C.ar    1  UNL1        0.0825
      8 C         142.5673  142.0167  159.6186 C.ar    1  UNL1        0.0413
      9 C         143.4064  142.3773  158.4287 C.ar    1  UNL1        0.1217
     10 N         142.9965  143.7455  157.9700 N.ar    1  UNL1       -0.1676
     11 N         141.9042  144.2303  158.8765 N.ar    1  UNL1       -0.2487
     12 C         141.2006  145.5517  158.7809 C.3     1  UNL1        0.1537
     13 N         140.5036  143.5594  164.9504 N.am    1  UNL1       -0.2804
     14 C         140.9080  142.3413  165.7267 C.2     1  UNL1        0.2496
     15 O         140.8645  140.9897  165.0775 O.2     1  UNL1       -0.2698
     16 H         140.5321  144.4465  165.3765 H       1  UNL1        0.1552
     17 C         141.3558  142.4747  167.1521 C.ar    1  UNL1        0.0559
     18 C         142.7627  142.1203  167.5325 C.ar    1  UNL1        0.0047
     19 C         143.2105  142.2537  168.9579 C.ar    1  UNL1        0.0025
     20 C         142.2512  142.7415  170.0028 C.ar    1  UNL1        0.0296
     21 C         140.8442  143.0959  169.6224 C.ar    1  UNL1        0.1403
     22 F         139.8850  143.5837  170.6673 F       1  UNL1       -0.2042
     23 C         140.3965  142.9625  168.1970 C.ar    1  UNL1        0.0342
     24 O         138.7126  143.0256  159.2489 O.3     1  UNL1       -0.4739
     25 C         138.9001  141.7268  158.5223 C.3     1  UNL1        0.2226
     26 C         138.1605  140.5020  158.9727 C.3     1  UNL1        0.1201
     27 C         138.9821  137.5482  165.1250 C.3     1  UNL1        0.0948
     28 C         139.8925  137.6066  163.9343 C.2     1  UNL1        0.2262
     29 O         141.2358  136.9411  163.9840 O.2     1  UNL1       -0.2749
     30 N         139.4595  138.3304  162.6939 N.am    1  UNL1       -0.2767
     31 C         138.1162  138.9959  162.6442 C.3     1  UNL1        0.1107
     32 C         137.6832  139.7198  161.4038 C.3     1  UNL1        0.0940
     33 N         138.5935  139.7781  160.2131 N.3     1  UNL1       -0.2666
     34 C         139.9368  139.1126  160.2628 C.3     1  UNL1        0.0940
     35 C         140.3698  138.3888  161.5032 C.3     1  UNL1        0.1107
@<TRIPOS>BOND
     1    27    28    1
     2    28    29    2
     3    28    30   am
     4    30    31    1
     5    31    32    1
     6    32    33    1
     7    33    26    1
     8    26    25    1
     9    25    24    1
    10    24     1    1
    11     1     2   ar
    12     2     3   ar
    13     3     4   ar
    14     4    13    1
    15    13    14   am
    16    14    15    2
    17    14    17    1
    18    17    18   ar
    19    18    19   ar
    20    19    20   ar
    21    20    21   ar
    22    21    22    1
    23    21    23   ar
    24     4     5   ar
    25     5     6   ar
    26     6     7    1
    27     7     8   ar
    28     8     9   ar
    29     9    10   ar
    30    10    11   ar
    31    11    12    1
    32    33    34    1
    33    34    35    1
    34    35    30    1
    35     6     1   ar
    36    11     7   ar
    37    23    17   ar
    38    13    16    1
@<TRIPOS>MOLECULE
*****
 35 38 0 0 0
SMALL
GASTEIGER

@<TRIPOS>ATOM
      1 C         140.5857  138.6295  161.0748 C.ar    1  UNL1        0.1400
      2 C         141.1421  137.8202  162.2084 C.ar    1  UNL1        0.0382
      3 C         140.8470  138.2126  163.6259 C.ar    1  UNL1        0.0178
      4 C         139.9954  139.4144  163.9095 C.ar    1  UNL1        0.0508
      5 C         139.4389  140.2238  162.7757 C.ar    1  UNL1        0.0192
      6 C         139.7341  139.8313  161.3584 C.ar    1  UNL1        0.0525
      7 C         139.1776  140.6407  160.2247 C.ar    1  UNL1        0.0825
      8 C         138.3457  140.1162  159.0920 C.ar    1  UNL1        0.0413
      9 C         138.0093  141.2680  158.1919 C.ar    1  UNL1        0.1217
     10 N         138.6333  142.5044  158.7682 N.ar    1  UNL1       -0.1676
     11 N         139.3554  142.1166  160.0245 N.ar    1  UNL1       -0.2487
     12 C         140.1208  143.0423  160.9230 C.3     1  UNL1        0.1537
     13 N         139.7003  139.8069  165.3268 N.am    1  UNL1       -0.2804
     14 C         140.5488  140.8367  166.0120 C.2     1  UNL1        0.2496
     15 O         141.6924  141.4740  165.2799 O.2     1  UNL1       -0.2698
     16 H         138.9497  139.3886  165.8073 H       1  UNL1        0.1552
     17 C         140.2537  141.2292  167.4294 C.ar    1  UNL1        0.0559
     18 C         139.6026  140.2486  168.3592 C.ar    1  UNL1        0.0047
     19 C         139.3076  140.6411  169.7765 C.ar    1  UNL1        0.0025
     20 C         139.6636  142.0143  170.2640 C.ar    1  UNL1        0.0296
     21 C         140.3146  142.9949  169.3343 C.ar    1  UNL1        0.1403
     22 F         140.6706  144.3681  169.8218 F       1  UNL1       -0.2042
     23 C         140.6097  142.6024  167.9170 C.ar    1  UNL1        0.0342
     24 O         140.8808  138.2371  159.6574 O.3     1  UNL1       -0.4739
     25 C         142.0905  138.7886  158.9628 C.3     1  UNL1        0.2226
     26 C         143.3857  138.9247  159.7071 C.3     1  UNL1        0.1201
     27 C         144.6526  143.4271  164.7443 C.3     1  UNL1        0.0948
     28 C         144.2986  143.6406  163.3024 C.2     1  UNL1        0.2262
     29 O         144.1727  145.0332  162.7594 O.2     1  UNL1       -0.2749
     30 N         144.0703  142.4617  162.4036 N.am    1  UNL1       -0.2767
     31 C         144.1962  141.0691  162.9466 C.3     1  UNL1        0.1107
     32 C         143.9680  139.8901  162.0478 C.3     1  UNL1        0.0940
     33 N         143.6139  140.1037  160.6059 N.3     1  UNL1       -0.2666
     34 C         143.4881  141.4962  160.0629 C.3     1  UNL1        0.0940
     35 C         143.7163  142.6752  160.9617 C.3     1  UNL1        0.1107
@<TRIPOS>BOND
     1    27    28    1
     2    28    29    2
     3    28    30   am
     4    30    31    1
     5    31    32    1
     6    32    33    1
     7    33    26    1
     8    26    25    1
     9    25    24    1
    10    24     1    1
    11     1     2   ar
    12     2     3   ar
    13     3     4   ar
    14     4    13    1
    15    13    14   am
    16    14    15    2
    17    14    17    1
    18    17    18   ar
    19    18    19   ar
    20    19    20   ar
    21    20    21   ar
    22    21    22    1
    23    21    23   ar
    24     4     5   ar
    25     5     6   ar
    26     6     7    1
    27     7     8   ar
    28     8     9   ar
    29     9    10   ar
    30    10    11   ar
    31    11    12    1
    32    33    34    1
    33    34    35    1
    34    35    30    1
    35     6     1   ar
    36    11     7   ar
    37    23    17   ar
    38    13    16    1
@<TRIPOS>MOLECULE
*****
 35 38 0 0 0
SMALL
GASTEIGER

@<TRIPOS>ATOM
      1 C         143.8658  142.8372  160.8698 C.ar    1  UNL1        0.1400
      2 C         144.9405  142.3837  161.8129 C.ar    1  UNL1        0.0382
      3 C         144.7322  142.4902  163.2945 C.ar    1  UNL1        0.0178
      4 C         143.4490  143.0501  163.8331 C.ar    1  UNL1        0.0508
      5 C         142.3743  143.5036  162.8900 C.ar    1  UNL1        0.0192
      6 C         142.5827  143.3972  161.4084 C.ar    1  UNL1        0.0525
      7 C         141.5080  143.8507  160.4654 C.ar    1  UNL1        0.0825
      8 C         141.6294  144.9519  159.4542 C.ar    1  UNL1        0.0413
      9 C         140.3196  145.0644  158.7318 C.ar    1  UNL1        0.1217
     10 N         139.3887  144.0326  159.2965 N.ar    1  UNL1       -0.1676
     11 N         140.1232  143.2825  160.3679 N.ar    1  UNL1       -0.2487
     12 C         139.5700  142.1610  161.1964 C.3     1  UNL1        0.1537
     13 N         143.2406  143.1565  165.3147 N.am    1  UNL1       -0.2804
     14 C         142.4851  142.0859  166.0446 C.2     1  UNL1        0.2496
     15 O         141.9379  140.9088  165.2929 O.2     1  UNL1       -0.2698
     16 H         143.5998  143.9291  165.8081 H       1  UNL1        0.1552
     17 C         142.2766  142.1923  167.5263 C.ar    1  UNL1        0.0559
     18 C         143.4558  142.3464  168.4404 C.ar    1  UNL1        0.0047
     19 C         143.2473  142.4528  169.9220 C.ar    1  UNL1        0.0025
     20 C         141.8597  142.4051  170.4895 C.ar    1  UNL1        0.0296
     21 C         140.6804  142.2510  169.5754 C.ar    1  UNL1        0.1403
     22 F         139.2927  142.2034  170.1428 F       1  UNL1       -0.2042
     23 C         140.8889  142.1446  168.0938 C.ar    1  UNL1        0.0342
     24 O         144.0742  142.7308  159.3882 O.3     1  UNL1       -0.4739
     25 C         143.5326  141.5505  158.6375 C.3     1  UNL1        0.2226
     26 C         143.8550  140.1587  159.0946 C.3     1  UNL1        0.1201
     27 C         141.0886  137.0120  164.5439 C.3     1  UNL1        0.0948
     28 C         140.4621  137.5129  163.2764 C.2     1  UNL1        0.2262
     29 O         138.9873  137.3523  163.0544 O.2     1  UNL1       -0.2749
     30 N         141.3103  138.1743  162.2310 N.am    1  UNL1       -0.2767
     31 C         142.7850  138.3349  162.4530 C.3     1  UNL1        0.1107
     32 C         143.6333  138.9963  161.4075 C.3     1  UNL1        0.0940
     33 N         143.0068  139.4972  160.1401 N.3     1  UNL1       -0.2666
     34 C         141.5320  139.3367  159.9181 C.3     1  UNL1        0.0940
     35 C         140.6838  138.6752  160.9635 C.3     1  UNL1        0.1107
@<TRIPOS>BOND
     1    27    28    1
     2    28    29    2
     3    28    30   am
     4    30    31    1
     5    31    32    1
     6    32    33    1
     7    33    26    1
     8    26    25    1
     9    25    24    1
    10    24     1    1
    11     1     2   ar
    12     2     3   ar
    13     3     4   ar
    14     4    13    1
    15    13    14   am
    16    14    15    2
    17    14    17    1
    18    17    18   ar
    19    18    19   ar
    20    19    20   ar
    21    20    21   ar
    22    21    22    1
    23    21    23   ar
    24     4     5   ar
    25     5     6   ar
    26     6     7    1
    27     7     8   ar
    28     8     9   ar
    29     9    10   ar
    30    10    11   ar
    31    11    12    1
    32    33    34    1
    33    34    35    1
    34    35    30    1
    35     6     1   ar
    36    11     7   ar
    37    23    17   ar
    38    13    16    1
@<TRIPOS>MOLECULE
*****
 35 38 0 0 0
SMALL
GASTEIGER

@<TRIPOS>ATOM
      1 C         140.8570  142.7201  160.7006 C.ar    1  UNL1        0.1400
      2 C         140.1534  143.7868  161.4861 C.ar    1  UNL1        0.0382
      3 C         140.4803  143.9895  162.9360 C.ar    1  UNL1        0.0178
      4 C         141.5108  143.1253  163.6003 C.ar    1  UNL1        0.0508
      5 C         142.2144  142.0586  162.8148 C.ar    1  UNL1        0.0192
      6 C         141.8874  141.8559  161.3650 C.ar    1  UNL1        0.0525
      7 C         142.5910  140.7892  160.5794 C.ar    1  UNL1        0.0825
      8 C         142.3678  139.3111  160.7031 C.ar    1  UNL1        0.0413
      9 C         143.2801  138.6216  159.7324 C.ar    1  UNL1        0.1217
     10 N         144.0674  139.6737  159.0088 N.ar    1  UNL1       -0.1676
     11 N         143.6414  141.0133  159.5323 N.ar    1  UNL1       -0.2487
     12 C         144.1727  142.3435  159.0869 C.3     1  UNL1        0.1537
     13 N         141.8377  143.3280  165.0501 N.am    1  UNL1       -0.2804
     14 C         141.3184  142.3664  166.0775 C.2     1  UNL1        0.2496
     15 O         140.4721  141.2021  165.6551 O.2     1  UNL1       -0.2698
     16 H         142.3931  144.0921  165.3274 H       1  UNL1        0.1552
     17 C         141.6453  142.5689  167.5274 C.ar    1  UNL1        0.0559
     18 C         140.5737  142.9988  168.4849 C.ar    1  UNL1        0.0047
     19 C         140.9006  143.2014  169.9347 C.ar    1  UNL1        0.0025
     20 C         142.2991  142.9741  170.4271 C.ar    1  UNL1        0.0296
     21 C         143.3708  142.5442  169.4696 C.ar    1  UNL1        0.1403
     22 F         144.7693  142.3169  169.9619 F       1  UNL1       -0.2042
     23 C         143.0438  142.3416  168.0198 C.ar    1  UNL1        0.0342
     24 O         140.5301  142.5174  159.2507 O.3     1  UNL1       -0.4739
     25 C         139.6012  141.4141  158.8384 C.3     1  UNL1        0.2226
     26 C         138.3177  141.1966  159.5836 C.3     1  UNL1        0.1201
     27 C         138.9912  137.2514  165.1721 C.3     1  UNL1        0.0948
     28 C         138.3934  138.6162  164.9998 C.2     1  UNL1        0.2262
     29 O         137.8146  139.3360  166.1817 O.2     1  UNL1       -0.2749
     30 N         138.3745  139.2613  163.6458 N.am    1  UNL1       -0.2767
     31 C         138.9534  138.5416  162.4639 C.3     1  UNL1        0.1107
     32 C         138.9344  139.1867  161.1099 C.3     1  UNL1        0.0940
     33 N         138.3366  140.5515  160.9376 N.3     1  UNL1       -0.2666
     34 C         137.7577  141.2713  162.1195 C.3     1  UNL1        0.0940
     35 C         137.7767  140.6262  163.4735 C.3     1  UNL1        0.1107
@<TRIPOS>BOND
     1    27    28    1
     2    28    29    2
     3    28    30   am
     4    30    31    1
     5    31    32    1
     6    32    33    1
     7    33    26    1
     8    26    25    1
     9    25    24    1
    10    24     1    1
    11     1     2   ar
    12     2     3   ar
    13     3     4   ar
    14     4    13    1
    15    13    14   am
    16    14    15    2
    17    14    17    1
    18    17    18   ar
    19    18    19   ar
    20    19    20   ar
    21    20    21   ar
    22    21    22    1
    23    21    23   ar
    24     4     5   ar
    25     5     6   ar
    26     6     7    1
    27     7     8   ar
    28     8     9   ar
    29     9    10   ar
    30    10    11   ar
    31    11    12    1
    32    33    34    1
    33    34    35    1
    34    35    30    1
    35     6     1   ar
    36    11     7   ar
    37    23    17   ar
    38    13    16    1
@<TRIPOS>MOLECULE
*****
 35 38 0 0 0
SMALL
GASTEIGER

@<TRIPOS>ATOM
      1 C         138.9533  142.9890  161.5764 C.ar    1  UNL1        0.1400
      2 C         138.6053  143.9034  162.7133 C.ar    1  UNL1        0.0382
      3 C         138.7281  143.4211  164.1284 C.ar    1  UNL1        0.0178
      4 C         139.1990  142.0243  164.4064 C.ar    1  UNL1        0.0508
      5 C         139.5470  141.1099  163.2694 C.ar    1  UNL1        0.0192
      6 C         139.4241  141.5922  161.8544 C.ar    1  UNL1        0.0525
      7 C         139.7722  140.6778  160.7174 C.ar    1  UNL1        0.0825
      8 C         141.1532  140.3935  160.2056 C.ar    1  UNL1        0.0413
      9 C         141.0347  139.4271  159.0645 C.ar    1  UNL1        0.1217
     10 N         139.5805  139.1142  158.8710 N.ar    1  UNL1       -0.1676
     11 N         138.8002  139.8872  159.8926 N.ar    1  UNL1       -0.2487
     12 C         137.3096  139.8722  160.0600 C.3     1  UNL1        0.1537
     13 N         139.3219  141.5420  165.8214 N.am    1  UNL1       -0.2804
     14 C         140.6572  141.5540  166.5046 C.2     1  UNL1        0.2496
     15 O         141.8696  142.0484  165.7728 O.2     1  UNL1       -0.2698
     16 H         138.5261  141.2175  166.3017 H       1  UNL1        0.1552
     17 C         140.7801  141.0716  167.9196 C.ar    1  UNL1        0.0559
     18 C         139.5506  140.7035  168.6960 C.ar    1  UNL1        0.0047
     19 C         139.6736  140.2211  170.1109 C.ar    1  UNL1        0.0025
     20 C         141.0260  140.1069  170.7495 C.ar    1  UNL1        0.0296
     21 C         142.2555  140.4751  169.9732 C.ar    1  UNL1        0.1403
     22 F         143.6080  140.3609  170.6118 F       1  UNL1       -0.2042
     23 C         142.1325  140.9574  168.5582 C.ar    1  UNL1        0.0342
     24 O         138.8304  143.4714  160.1613 O.3     1  UNL1       -0.4739
     25 C         140.0146  144.0809  159.4713 C.3     1  UNL1        0.2226
     26 C         140.9143  145.0220  160.2162 C.3     1  UNL1        0.1201
     27 C         145.8104  141.7735  163.7835 C.3     1  UNL1        0.0948
     28 C         144.8767  142.8787  164.1793 C.2     1  UNL1        0.2262
     29 O         144.9335  143.4480  165.5658 O.2     1  UNL1       -0.2749
     30 N         143.8861  143.4145  163.1885 N.am    1  UNL1       -0.2767
     31 C         143.8292  142.8452  161.8019 C.3     1  UNL1        0.1107
     32 C         142.8386  143.3810  160.8112 C.3     1  UNL1        0.0940
     33 N         141.9049  144.4861  161.2069 N.3     1  UNL1       -0.2666
     34 C         141.9617  145.0555  162.5935 C.3     1  UNL1        0.0940
     35 C         142.9523  144.5197  163.5843 C.3     1  UNL1        0.1107
@<TRIPOS>BOND
     1    27    28    1
     2    28    29    2
     3    28    30   am
     4    30    31    1
     5    31    32    1
     6    32    33    1
     7    33    26    1
     8    26    25    1
     9    25    24    1
    10    24     1    1
    11     1     2   ar
    12     2     3   ar
    13     3     4   ar
    14     4    13    1
    15    13    14   am
    16    14    15    2
    17    14    17    1
    18    17    18   ar
    19    18    19   ar
    20    19    20   ar
    21    20    21   ar
    22    21    22    1
    23    21    23   ar
    24     4     5   ar
    25     5     6   ar
    26     6     7    1
    27     7     8   ar
    28     8     9   ar
    29     9    10   ar
    30    10    11   ar
    31    11    12    1
    32    33    34    1
    33    34    35    1
    34    35    30    1
    35     6     1   ar
    36    11     7   ar
    37    23    17   ar
    38    13    16    1
@<TRIPOS>MOLECULE
*****
 35 38 0 0 0
SMALL
GASTEIGER

@<TRIPOS>ATOM
      1 C         142.3818  142.1783  160.1771 C.ar    1  UNL1        0.1400
      2 C         141.9847  142.4142  158.7500 C.ar    1  UNL1        0.0382
      3 C         143.0383  142.6247  157.7032 C.ar    1  UNL1        0.0178
      4 C         144.4890  142.5992  158.0836 C.ar    1  UNL1        0.0508
      5 C         144.8862  142.3633  159.5107 C.ar    1  UNL1        0.0192
      6 C         143.8326  142.1528  160.5574 C.ar    1  UNL1        0.0525
      7 C         144.2297  141.9168  161.9845 C.ar    1  UNL1        0.0825
      8 C         144.6035  140.5958  162.5888 C.ar    1  UNL1        0.0413
      9 C         144.9276  140.8230  164.0357 C.ar    1  UNL1        0.1217
     10 N         144.7541  142.2845  164.3256 N.ar    1  UNL1       -0.1676
     11 N         144.3228  142.9605  163.0579 N.ar    1  UNL1       -0.2487
     12 C         144.0350  144.4233  162.8926 C.3     1  UNL1        0.1537
     13 N         145.5426  142.8097  157.0369 N.am    1  UNL1       -0.2804
     14 C         146.0714  141.6410  156.2595 C.2     1  UNL1        0.2496
     15 O         145.5467  140.2618  156.5288 O.2     1  UNL1       -0.2698
     16 H         145.8870  143.7149  156.8601 H       1  UNL1        0.1552
     17 C         147.1251  141.8515  155.2127 C.ar    1  UNL1        0.0559
     18 C         146.7273  142.1390  153.7953 C.ar    1  UNL1        0.0047
     19 C         147.7809  142.3494  152.7486 C.ar    1  UNL1        0.0025
     20 C         149.2323  142.2723  153.1194 C.ar    1  UNL1        0.0296
     21 C         149.6301  141.9848  154.5367 C.ar    1  UNL1        0.1403
     22 F         151.0815  141.9077  154.9075 F       1  UNL1       -0.2042
     23 C         148.5765  141.7744  155.5834 C.ar    1  UNL1        0.0342
     24 O         141.3282  141.9678  161.2238 O.3     1  UNL1       -0.4739
     25 C         140.4632  143.1136  161.6584 C.3     1  UNL1        0.2226
     26 C         140.4244  143.5186  163.1021 C.3     1  UNL1        0.1201
     27 C         137.7183  138.5113  166.9561 C.3     1  UNL1        0.0948
     28 C         138.7394  139.5599  167.2841 C.2     1  UNL1        0.2262
     29 O         139.3392  139.6189  168.6577 O.2     1  UNL1       -0.2749
     30 N         139.1606  140.5496  166.2386 N.am    1  UNL1       -0.2767
     31 C         138.5608  140.4906  164.8651 C.3     1  UNL1        0.1107
     32 C         138.9821  141.4803  163.8196 C.3     1  UNL1        0.0940
     33 N         140.0031  142.5289  164.1476 N.3     1  UNL1       -0.2666
     34 C         140.6030  142.5879  165.5212 C.3     1  UNL1        0.0940
     35 C         140.1817  141.5983  166.5667 C.3     1  UNL1        0.1107
@<TRIPOS>BOND
     1    27    28    1
     2    28    29    2
     3    28    30   am
     4    30    31    1
     5    31    32    1
     6    32    33    1
     7    33    26    1
     8    26    25    1
     9    25    24    1
    10    24     1    1
    11     1     2   ar
    12     2     3   ar
    13     3     4   ar
    14     4    13    1
    15    13    14   am
    16    14    15    2
    17    14    17    1
    18    17    18   ar
    19    18    19   ar
    20    19    20   ar
    21    20    21   ar
    22    21    22    1
    23    21    23   ar
    24     4     5   ar
    25     5     6   ar
    26     6     7    1
    27     7     8   ar
    28     8     9   ar
    29     9    10   ar
    30    10    11   ar
    31    11    12    1
    32    33    34    1
    33    34    35    1
    34    35    30    1
    35     6     1   ar
    36    11     7   ar
    37    23    17   ar
    38    13    16    1
@<TRIPOS>MOLECULE
*****
 35 38 0 0 0
SMALL
GASTEIGER

@<TRIPOS>ATOM
      1 C         138.5533  142.0010  161.2436 C.ar    1  UNL1        0.1400
      2 C         137.6861  141.2753  162.2290 C.ar    1  UNL1        0.0382
      3 C         137.9063  141.4609  163.7012 C.ar    1  UNL1        0.0178
      4 C         138.9938  142.3723  164.1877 C.ar    1  UNL1        0.0508
      5 C         139.8610  143.0981  163.2022 C.ar    1  UNL1        0.0192
      6 C         139.6408  142.9124  161.7301 C.ar    1  UNL1        0.0525
      7 C         140.5080  143.6382  160.7446 C.ar    1  UNL1        0.0825
      8 C         141.4707  143.0056  159.7838 C.ar    1  UNL1        0.0413
      9 C         142.1224  144.1004  158.9923 C.ar    1  UNL1        0.1217
     10 N         141.5625  145.4097  159.4638 N.ar    1  UNL1       -0.1676
     11 N         140.5648  145.1240  160.5468 N.ar    1  UNL1       -0.2487
     12 C         139.7643  146.1450  161.2999 C.3     1  UNL1        0.1537
     13 N         139.2140  142.5580  165.6598 N.am    1  UNL1       -0.2804
     14 C         139.9081  141.4920  166.4546 C.2     1  UNL1        0.2496
     15 O         140.3820  140.2403  165.7773 O.2     1  UNL1       -0.2698
     16 H         138.9030  143.3795  166.1043 H       1  UNL1        0.1552
     17 C         140.1284  141.6776  167.9267 C.ar    1  UNL1        0.0559
     18 C         140.5770  143.0074  168.4561 C.ar    1  UNL1        0.0047
     19 C         140.7972  143.1930  169.9282 C.ar    1  UNL1        0.0025
     20 C         140.5689  142.0488  170.8708 C.ar    1  UNL1        0.0296
     21 C         140.1203  140.7190  170.3414 C.ar    1  UNL1        0.1403
     22 F         139.8920  139.5747  171.2841 F       1  UNL1       -0.2042
     23 C         139.9001  140.5334  168.8694 C.ar    1  UNL1        0.0342
     24 O         138.3331  141.8154  159.7714 O.3     1  UNL1       -0.4739
     25 C         139.0060  140.6861  159.0490 C.3     1  UNL1        0.2226
     26 C         139.1619  139.3536  159.7199 C.3     1  UNL1        0.1201
     27 C         144.5003  139.3138  164.0499 C.3     1  UNL1        0.0948
     28 C         143.1472  138.6749  164.1535 C.2     1  UNL1        0.2262
     29 O         142.7904  137.8664  165.3654 O.2     1  UNL1       -0.2749
     30 N         142.1509  138.8446  163.0451 N.am    1  UNL1       -0.2767
     31 C         142.5077  139.6531  161.8331 C.3     1  UNL1        0.1107
     32 C         141.5114  139.8228  160.7247 C.3     1  UNL1        0.0940
     33 N         140.1582  139.1839  160.8283 N.3     1  UNL1       -0.2666
     34 C         139.8014  138.3753  162.0402 C.3     1  UNL1        0.0940
     35 C         140.7977  138.2057  163.1486 C.3     1  UNL1        0.1107
@<TRIPOS>BOND
     1    27    28    1
     2    28    29    2
     3    28    30   am
     4    30    31    1
     5    31    32    1
     6    32    33    1
     7    33    26    1
     8    26    25    1
     9    25    24    1
    10    24     1    1
    11     1     2   ar
    12     2     3   ar
    13     3     4   ar
    14     4    13    1
    15    13    14   am
    16    14    15    2
    17    14    17    1
    18    17    18   ar
    19    18    19   ar
    20    19    20   ar
    21    20    21   ar
    22    21    22    1
    23    21    23   ar
    24     4     5   ar
    25     5     6   ar
    26     6     7    1
    27     7     8   ar
    28     8     9   ar
    29     9    10   ar
    30    10    11   ar
    31    11    12    1
    32    33    34    1
    33    34    35    1
    34    35    30    1
    35     6     1   ar
    36    11     7   ar
    37    23    17   ar
    38    13    16    1
