@<TRIPOS>MOLECULE
*****
 42 47 0 0 0
SMALL
GASTEIGER

@<TRIPOS>ATOM
      1 N         139.1452  142.4703  160.4078 N.am    1  UNL1       -0.1892
      2 C         138.4938  141.5677  159.4023 C.2     1  UNL1        0.3220
      3 O         137.8604  140.2390  159.6902 O.2     1  UNL1       -0.2512
      4 N         138.5871  142.2273  158.0583 N.am    1  UNL1       -0.2211
      5 C         139.2962  143.5376  158.2331 C.3     1  UNL1        0.1391
      6 C         140.0151  144.8126  158.5607 C.3     1  UNL1        0.0449
      7 C         140.3249  145.7993  157.4743 C.3     1  UNL1        0.0746
      8 N         139.9156  145.5111  156.0603 N.3     1  UNL1       -0.2676
      9 C         139.1966  144.2360  155.7327 C.3     1  UNL1        0.0746
     10 C         138.8869  143.2493  156.8191 C.3     1  UNL1        0.0449
     11 C         139.6411  143.6878  159.6852 C.2     1  UNL1        0.2529
     12 O         140.3563  144.8511  160.3058 O.2     1  UNL1       -0.2724
     13 C         139.5421  141.6670  164.8177 C.ar    1  UNL1        0.0811
     14 C         138.3759  142.4564  164.3011 C.ar    1  UNL1        0.0204
     15 C         138.2436  142.7242  162.8311 C.ar    1  UNL1        0.0185
     16 C         139.2775  142.2026  161.8778 C.ar    1  UNL1        0.0813
     17 C         140.4436  141.4132  162.3943 C.ar    1  UNL1        0.1141
     18 N         140.5759  141.1454  163.8643 N.ar    1  UNL1       -0.2425
     19 C         138.5053  139.1003  165.9741 C.3     1  UNL1        0.0311
     20 C         139.1560  140.1159  166.8658 C.ar    1  UNL1       -0.0204
     21 C         139.2883  139.8481  168.3358 C.ar    1  UNL1       -0.0031
     22 C         139.9390  140.8636  169.2276 C.ar    1  UNL1        0.0137
     23 C         140.4574  142.1470  168.6493 C.ar    1  UNL1        0.0012
     24 C         140.3251  142.4148  167.1794 C.ar    1  UNL1        0.0012
     25 C         139.6744  141.3992  166.2876 C.ar    1  UNL1        0.0137
     26 C         140.0713  140.5958  170.6975 C.2     1  UNL1        0.0729
     27 O         139.4547  139.3655  171.2942 O.co2   1  UNL1       -0.5446
     28 O         140.8202  141.5584  171.5708 O.co2   1  UNL1       -0.5446
     29 C         138.0634  141.6739  156.7663 C.ar    1  UNL1        0.1583
     30 C         138.9289  140.7817  155.9268 C.ar    1  UNL1        0.1335
     31 N         138.4051  140.2283  154.6348 N.ar    1  UNL1       -0.2378
     32 C         137.0156  140.5670  154.1822 C.ar    1  UNL1        0.1196
     33 C         136.1501  141.4592  155.0217 C.ar    1  UNL1        0.1210
     34 N         136.6739  142.0126  156.3137 N.ar    1  UNL1       -0.2255
     35 C         140.2254  146.4979  154.9738 C.3     1  UNL1        0.1183
     36 C         139.7065  147.9022  155.0660 C.ar    1  UNL1        0.0712
     37 N         138.8425  148.3082  156.2230 N.ar    1  UNL1       -0.2471
     38 C         138.3236  149.7126  156.3150 C.ar    1  UNL1        0.0985
     39 C         138.6687  150.7110  155.2502 C.ar    1  UNL1        0.0203
     40 C         139.5327  150.3051  154.0931 C.ar    1  UNL1       -0.0015
     41 C         140.0516  148.9007  154.0010 C.ar    1  UNL1       -0.0069
     42 C         140.9156  148.4948  152.8440 C.3     1  UNL1        0.0323
@<TRIPOS>UNITY_ATOM_ATTR
27 1
charge -1
@<TRIPOS>BOND
     1    19    20    1
     2    20    21   ar
     3    21    22   ar
     4    22    26    1
     5    26    27   ar
     6    26    28   ar
     7    22    23   ar
     8    23    24   ar
     9    24    25   ar
    10    25    13    1
    11    13    14   ar
    12    14    15   ar
    13    15    16   ar
    14    16     1    1
    15     1     2   am
    16     2     3    2
    17     2     4   am
    18     4    29    1
    19    29    30   ar
    20    30    31   ar
    21    31    32   ar
    22    32    33   ar
    23    33    34   ar
    24     4     5    1
    25     5     6    1
    26     6     7    1
    27     7     8    1
    28     8    35    1
    29    35    36    1
    30    36    37   ar
    31    37    38   ar
    32    38    39   ar
    33    39    40   ar
    34    40    41   ar
    35    41    42    1
    36     8     9    1
    37     9    10    1
    38     5    11    1
    39    11    12    2
    40    16    17   ar
    41    17    18   ar
    42    25    20   ar
    43    18    13   ar
    44    11     1   am
    45    34    29   ar
    46    10     5    1
    47    41    36   ar
@<TRIPOS>MOLECULE
*****
 42 47 0 0 0
SMALL
GASTEIGER

@<TRIPOS>ATOM
      1 N         142.8931  140.5501  160.7686 N.am    1  UNL1       -0.1892
      2 C         143.4758  141.5898  159.8578 C.2     1  UNL1        0.3220
      3 O         143.7833  143.0112  160.2250 O.2     1  UNL1       -0.2512
      4 N         143.6969  140.9585  158.5152 N.am    1  UNL1       -0.2211
      5 C         143.2509  139.5285  158.5962 C.3     1  UNL1        0.1391
      6 C         142.7679  138.1273  158.8271 C.3     1  UNL1        0.0449
      7 C         142.8111  137.1257  157.7114 C.3     1  UNL1        0.0746
      8 N         143.3373  137.5254  156.3647 N.3     1  UNL1       -0.2676
      9 C         143.8202  138.9265  156.1338 C.3     1  UNL1        0.0746
     10 C         143.7770  139.9281  157.2495 C.3     1  UNL1        0.0449
     11 C         142.7542  139.2761  159.9889 C.2     1  UNL1        0.2529
     12 O         142.2134  137.9778  160.5104 O.2     1  UNL1       -0.2724
     13 C         141.7610  141.1477  165.0827 C.ar    1  UNL1        0.0811
     14 C         142.8294  140.1601  164.7175 C.ar    1  UNL1        0.0204
     15 C         143.2068  139.9609  163.2795 C.ar    1  UNL1        0.0185
     16 C         142.5158  140.7493  162.2066 C.ar    1  UNL1        0.0813
     17 C         141.4475  141.7368  162.5718 C.ar    1  UNL1        0.1141
     18 N         141.0701  141.9360  164.0098 N.ar    1  UNL1       -0.2425
     19 C         139.4280  139.6593  166.2413 C.3     1  UNL1        0.0311
     20 C         140.2172  140.6027  167.0999 C.ar    1  UNL1       -0.0204
     21 C         139.8398  140.8019  168.5380 C.ar    1  UNL1       -0.0031
     22 C         140.6289  141.7452  169.3967 C.ar    1  UNL1        0.0137
     23 C         141.7954  142.4894  168.8174 C.ar    1  UNL1        0.0012
     24 C         142.1728  142.2902  167.3794 C.ar    1  UNL1        0.0012
     25 C         141.3837  141.3469  166.5207 C.ar    1  UNL1        0.0137
     26 C         140.2515  141.9444  170.8348 C.2     1  UNL1        0.0729
     27 O         140.7137  140.9663  171.8738 O.co2   1  UNL1       -0.5446
     28 O         139.4120  143.1218  171.2337 O.co2   1  UNL1       -0.5446
     29 C         144.2643  141.6377  157.3042 C.ar    1  UNL1        0.1583
     30 C         143.3589  142.3835  156.3692 C.ar    1  UNL1        0.1335
     31 N         143.9264  143.0627  155.1582 N.ar    1  UNL1       -0.2378
     32 C         145.3993  142.9962  154.8820 C.ar    1  UNL1        0.1196
     33 C         146.3047  142.2504  155.8170 C.ar    1  UNL1        0.1210
     34 N         145.7372  141.5712  157.0280 N.ar    1  UNL1       -0.2255
     35 C         143.3804  136.5237  155.2490 C.3     1  UNL1        0.1183
     36 C         143.0186  135.0920  155.5120 C.ar    1  UNL1        0.0712
     37 N         143.9845  134.1932  156.2257 N.ar    1  UNL1       -0.2471
     38 C         143.6226  132.7614  156.4888 C.ar    1  UNL1        0.0985
     39 C         142.2950  132.2284  156.0380 C.ar    1  UNL1        0.0203
     40 C         141.3291  133.1272  155.3242 C.ar    1  UNL1       -0.0015
     41 C         141.6909  134.5589  155.0612 C.ar    1  UNL1       -0.0069
     42 C         140.7251  135.4576  154.3474 C.3     1  UNL1        0.0323
@<TRIPOS>UNITY_ATOM_ATTR
27 1
charge -1
@<TRIPOS>BOND
     1    19    20    1
     2    20    21   ar
     3    21    22   ar
     4    22    26    1
     5    26    27   ar
     6    26    28   ar
     7    22    23   ar
     8    23    24   ar
     9    24    25   ar
    10    25    13    1
    11    13    14   ar
    12    14    15   ar
    13    15    16   ar
    14    16     1    1
    15     1     2   am
    16     2     3    2
    17     2     4   am
    18     4    29    1
    19    29    30   ar
    20    30    31   ar
    21    31    32   ar
    22    32    33   ar
    23    33    34   ar
    24     4     5    1
    25     5     6    1
    26     6     7    1
    27     7     8    1
    28     8    35    1
    29    35    36    1
    30    36    37   ar
    31    37    38   ar
    32    38    39   ar
    33    39    40   ar
    34    40    41   ar
    35    41    42    1
    36     8     9    1
    37     9    10    1
    38     5    11    1
    39    11    12    2
    40    16    17   ar
    41    17    18   ar
    42    25    20   ar
    43    18    13   ar
    44    11     1   am
    45    34    29   ar
    46    10     5    1
    47    41    36   ar
@<TRIPOS>MOLECULE
*****
 42 47 0 0 0
SMALL
GASTEIGER

@<TRIPOS>ATOM
      1 N         142.0820  139.6150  160.7770 N.am    1  UNL1       -0.1892
      2 C         141.3468  138.5866  159.9695 C.2     1  UNL1        0.3220
      3 O         140.2057  137.7396  160.4495 O.2     1  UNL1       -0.2512
      4 N         141.9530  138.5540  158.5979 N.am    1  UNL1       -0.2211
      5 C         143.0630  139.5623  158.5576 C.3     1  UNL1        0.1391
      6 C         144.1378  140.6029  158.6669 C.3     1  UNL1        0.0449
      7 C         145.0141  140.9027  157.4870 C.3     1  UNL1        0.0746
      8 N         144.8156  140.1620  156.1978 N.3     1  UNL1       -0.2676
      9 C         143.7407  139.1215  156.0885 C.3     1  UNL1        0.0746
     10 C         142.8644  138.8216  157.2684 C.3     1  UNL1        0.0449
     11 C         143.1426  140.2181  159.9043 C.2     1  UNL1        0.2529
     12 O         144.1126  141.2888  160.3076 O.2     1  UNL1       -0.2724
     13 C         141.2514  140.7007  165.0643 C.ar    1  UNL1        0.0811
     14 C         142.2913  139.6695  164.7396 C.ar    1  UNL1        0.0204
     15 C         142.5682  139.3077  163.3105 C.ar    1  UNL1        0.0185
     16 C         141.8051  139.9769  162.2061 C.ar    1  UNL1        0.0813
     17 C         140.7653  141.0080  162.5308 C.ar    1  UNL1        0.1141
     18 N         140.4884  141.3699  163.9599 N.ar    1  UNL1       -0.2425
     19 C         139.0591  139.3087  166.5665 C.3     1  UNL1        0.0311
     20 C         139.8785  140.3666  167.2445 C.ar    1  UNL1       -0.0204
     21 C         139.6016  140.7284  168.6737 C.ar    1  UNL1       -0.0031
     22 C         140.4209  141.7863  169.3517 C.ar    1  UNL1        0.0137
     23 C         141.5171  142.4823  168.6006 C.ar    1  UNL1        0.0012
     24 C         141.7939  142.1204  167.1715 C.ar    1  UNL1        0.0012
     25 C         140.9746  141.0625  166.4934 C.ar    1  UNL1        0.0137
     26 C         140.1440  142.1482  170.7808 C.2     1  UNL1        0.0729
     27 O         140.7115  141.3123  171.8896 O.co2   1  UNL1       -0.5446
     28 O         139.2997  143.3459  171.1012 O.co2   1  UNL1       -0.5446
     29 C         141.5247  137.6687  157.4654 C.ar    1  UNL1        0.1583
     30 C         140.3305  138.0369  156.6358 C.ar    1  UNL1        0.1335
     31 N         139.9022  137.1514  155.5033 N.ar    1  UNL1       -0.2378
     32 C         140.6681  135.8977  155.2003 C.ar    1  UNL1        0.1196
     33 C         141.8623  135.5295  156.0300 C.ar    1  UNL1        0.1210
     34 N         142.2906  136.4150  157.1624 N.ar    1  UNL1       -0.2255
     35 C         145.6919  140.4619  155.0179 C.3     1  UNL1        0.1183
     36 C         145.8449  141.8745  154.5371 C.ar    1  UNL1        0.0712
     37 N         144.7034  142.5592  153.8457 N.ar    1  UNL1       -0.2471
     38 C         144.8565  143.9718  153.3649 C.ar    1  UNL1        0.0985
     39 C         146.1510  144.6997  153.5755 C.ar    1  UNL1        0.0203
     40 C         147.2925  144.0149  154.2669 C.ar    1  UNL1       -0.0015
     41 C         147.1395  142.6024  154.7477 C.ar    1  UNL1       -0.0069
     42 C         148.2811  141.9176  155.4391 C.3     1  UNL1        0.0323
@<TRIPOS>UNITY_ATOM_ATTR
27 1
charge -1
@<TRIPOS>BOND
     1    19    20    1
     2    20    21   ar
     3    21    22   ar
     4    22    26    1
     5    26    27   ar
     6    26    28   ar
     7    22    23   ar
     8    23    24   ar
     9    24    25   ar
    10    25    13    1
    11    13    14   ar
    12    14    15   ar
    13    15    16   ar
    14    16     1    1
    15     1     2   am
    16     2     3    2
    17     2     4   am
    18     4    29    1
    19    29    30   ar
    20    30    31   ar
    21    31    32   ar
    22    32    33   ar
    23    33    34   ar
    24     4     5    1
    25     5     6    1
    26     6     7    1
    27     7     8    1
    28     8    35    1
    29    35    36    1
    30    36    37   ar
    31    37    38   ar
    32    38    39   ar
    33    39    40   ar
    34    40    41   ar
    35    41    42    1
    36     8     9    1
    37     9    10    1
    38     5    11    1
    39    11    12    2
    40    16    17   ar
    41    17    18   ar
    42    25    20   ar
    43    18    13   ar
    44    11     1   am
    45    34    29   ar
    46    10     5    1
    47    41    36   ar
@<TRIPOS>MOLECULE
*****
 42 47 0 0 0
SMALL
GASTEIGER

@<TRIPOS>ATOM
      1 N         141.5798  139.4941  160.7191 N.am    1  UNL1       -0.1892
      2 C         142.6185  138.7112  159.9718 C.2     1  UNL1        0.3220
      3 O         143.9421  138.2601  160.5145 O.2     1  UNL1       -0.2512
      4 N         142.1012  138.4588  158.5867 N.am    1  UNL1       -0.2211
      5 C         140.7427  139.0856  158.4778 C.3     1  UNL1        0.1391
      6 C         139.4025  139.7580  158.5181 C.3     1  UNL1        0.0449
      7 C         138.5211  139.7469  157.3045 C.3     1  UNL1        0.0746
      8 N         138.9799  139.0634  156.0505 N.3     1  UNL1       -0.2676
      9 C         140.3201  138.3910  156.0102 C.3     1  UNL1        0.0746
     10 C         141.2015  138.4021  157.2239 C.3     1  UNL1        0.0449
     11 C         140.4205  139.7255  159.7957 C.2     1  UNL1        0.2529
     12 O         139.1603  140.4665  160.1313 O.2     1  UNL1       -0.2724
     13 C         141.8875  140.9014  164.9822 C.ar    1  UNL1        0.0811
     14 C         141.6370  141.8900  163.8823 C.ar    1  UNL1        0.0204
     15 C         141.5344  141.4209  162.4613 C.ar    1  UNL1        0.0185
     16 C         141.6824  139.9632  162.1402 C.ar    1  UNL1        0.0813
     17 C         141.9329  138.9746  163.2400 C.ar    1  UNL1        0.1141
     18 N         142.0355  139.4437  164.6611 N.ar    1  UNL1       -0.2425
     19 C         139.5419  140.6126  166.8302 C.3     1  UNL1        0.0311
     20 C         140.8173  141.2261  167.3272 C.ar    1  UNL1       -0.0204
     21 C         140.9199  141.6952  168.7484 C.ar    1  UNL1       -0.0031
     22 C         142.1952  142.3087  169.2455 C.ar    1  UNL1        0.0137
     23 C         143.3680  142.4531  168.3214 C.ar    1  UNL1        0.0012
     24 C         143.2655  141.9840  166.9004 C.ar    1  UNL1        0.0012
     25 C         141.9901  141.3705  166.4033 C.ar    1  UNL1        0.0137
     26 C         142.2978  142.7778  170.6665 C.2     1  UNL1        0.0729
     27 O         141.4176  142.1746  171.7208 O.co2   1  UNL1       -0.5446
     28 O         143.2806  143.8500  171.0333 O.co2   1  UNL1       -0.5446
     29 C         142.8166  137.7109  157.5010 C.ar    1  UNL1        0.1583
     30 C         142.7114  136.2165  157.4248 C.ar    1  UNL1        0.1335
     31 N         143.4268  135.4687  156.3391 N.ar    1  UNL1       -0.2378
     32 C         144.2475  136.2152  155.3295 C.ar    1  UNL1        0.1196
     33 C         144.3527  137.7095  155.4056 C.ar    1  UNL1        0.1210
     34 N         143.6373  138.4574  156.4914 N.ar    1  UNL1       -0.2255
     35 C         138.0984  139.0524  154.8369 C.3     1  UNL1        0.1183
     36 C         136.7622  139.7330  154.8741 C.ar    1  UNL1        0.0712
     37 N         135.5415  138.9666  155.2893 N.ar    1  UNL1       -0.2471
     38 C         134.2053  139.6472  155.3266 C.ar    1  UNL1        0.0985
     39 C         134.0899  141.0942  154.9487 C.ar    1  UNL1        0.0203
     40 C         135.3106  141.8606  154.5335 C.ar    1  UNL1       -0.0015
     41 C         136.6468  141.1800  154.4962 C.ar    1  UNL1       -0.0069
     42 C         137.8676  141.9464  154.0810 C.3     1  UNL1        0.0323
@<TRIPOS>UNITY_ATOM_ATTR
27 1
charge -1
@<TRIPOS>BOND
     1    19    20    1
     2    20    21   ar
     3    21    22   ar
     4    22    26    1
     5    26    27   ar
     6    26    28   ar
     7    22    23   ar
     8    23    24   ar
     9    24    25   ar
    10    25    13    1
    11    13    14   ar
    12    14    15   ar
    13    15    16   ar
    14    16     1    1
    15     1     2   am
    16     2     3    2
    17     2     4   am
    18     4    29    1
    19    29    30   ar
    20    30    31   ar
    21    31    32   ar
    22    32    33   ar
    23    33    34   ar
    24     4     5    1
    25     5     6    1
    26     6     7    1
    27     7     8    1
    28     8    35    1
    29    35    36    1
    30    36    37   ar
    31    37    38   ar
    32    38    39   ar
    33    39    40   ar
    34    40    41   ar
    35    41    42    1
    36     8     9    1
    37     9    10    1
    38     5    11    1
    39    11    12    2
    40    16    17   ar
    41    17    18   ar
    42    25    20   ar
    43    18    13   ar
    44    11     1   am
    45    34    29   ar
    46    10     5    1
    47    41    36   ar
@<TRIPOS>MOLECULE
*****
 42 47 0 0 0
SMALL
GASTEIGER

@<TRIPOS>ATOM
      1 N         142.6767  139.9190  160.6283 N.am    1  UNL1       -0.1892
      2 C         142.2636  138.8683  159.6406 C.2     1  UNL1        0.3220
      3 O         141.4187  137.6646  159.9355 O.2     1  UNL1       -0.2512
      4 N         142.8437  139.2329  158.3062 N.am    1  UNL1       -0.2211
      5 C         143.6154  140.5089  158.4691 C.3     1  UNL1        0.1391
      6 C         144.3452  141.7810  158.7833 C.3     1  UNL1        0.0449
      7 C         145.0894  142.5057  157.7012 C.3     1  UNL1        0.0746
      8 N         145.1037  141.9581  156.3048 N.3     1  UNL1       -0.2676
      9 C         144.3738  140.6859  155.9905 C.3     1  UNL1        0.0746
     10 C         143.6297  139.9613  157.0727 C.3     1  UNL1        0.0449
     11 C         143.5121  140.9329  159.9042 C.2     1  UNL1        0.2529
     12 O         144.1350  142.1561  160.5091 O.2     1  UNL1       -0.2724
     13 C         141.5990  140.0130  164.9962 C.ar    1  UNL1        0.0811
     14 C         142.3144  138.8244  164.4256 C.ar    1  UNL1        0.0204
     15 C         142.6736  138.7931  162.9696 C.ar    1  UNL1        0.0185
     16 C         142.3174  139.9503  162.0843 C.ar    1  UNL1        0.0813
     17 C         141.6021  141.1388  162.6548 C.ar    1  UNL1        0.1141
     18 N         141.2429  141.1701  164.1108 N.ar    1  UNL1       -0.2425
     19 C         138.7252  139.8246  165.8366 C.3     1  UNL1        0.0311
     20 C         139.8029  139.9501  166.8724 C.ar    1  UNL1       -0.0204
     21 C         139.4436  139.9814  168.3284 C.ar    1  UNL1       -0.0031
     22 C         140.5212  140.1069  169.3643 C.ar    1  UNL1        0.0137
     23 C         141.9581  140.2011  168.9441 C.ar    1  UNL1        0.0012
     24 C         142.3174  140.1698  167.4881 C.ar    1  UNL1        0.0012
     25 C         141.2397  140.0443  166.4522 C.ar    1  UNL1        0.0137
     26 C         140.1620  140.1382  170.8203 C.2     1  UNL1        0.0729
     27 O         140.8189  141.1302  171.7337 O.co2   1  UNL1       -0.5446
     28 O         139.1458  139.1775  171.3629 O.co2   1  UNL1       -0.5446
     29 C         142.6808  138.4576  157.0325 C.ar    1  UNL1        0.1583
     30 C         141.5053  138.7216  156.1388 C.ar    1  UNL1        0.1335
     31 N         141.3425  137.9462  154.8651 N.ar    1  UNL1       -0.2378
     32 C         142.3551  136.9069  154.4850 C.ar    1  UNL1        0.1196
     33 C         143.5306  136.6430  155.3786 C.ar    1  UNL1        0.1210
     34 N         143.6934  137.4183  156.6523 N.ar    1  UNL1       -0.2255
     35 C         145.8479  142.6828  155.2226 C.3     1  UNL1        0.1183
     36 C         147.2454  142.2696  154.8674 C.ar    1  UNL1        0.0712
     37 N         148.2624  142.0567  155.9493 N.ar    1  UNL1       -0.2471
     38 C         149.6600  141.6436  155.5941 C.ar    1  UNL1        0.0985
     39 C         150.0406  141.4434  154.1570 C.ar    1  UNL1        0.0203
     40 C         149.0236  141.6563  153.0752 C.ar    1  UNL1       -0.0015
     41 C         147.6260  142.0694  153.4304 C.ar    1  UNL1       -0.0069
     42 C         146.6090  142.2823  152.3485 C.3     1  UNL1        0.0323
@<TRIPOS>UNITY_ATOM_ATTR
27 1
charge -1
@<TRIPOS>BOND
     1    19    20    1
     2    20    21   ar
     3    21    22   ar
     4    22    26    1
     5    26    27   ar
     6    26    28   ar
     7    22    23   ar
     8    23    24   ar
     9    24    25   ar
    10    25    13    1
    11    13    14   ar
    12    14    15   ar
    13    15    16   ar
    14    16     1    1
    15     1     2   am
    16     2     3    2
    17     2     4   am
    18     4    29    1
    19    29    30   ar
    20    30    31   ar
    21    31    32   ar
    22    32    33   ar
    23    33    34   ar
    24     4     5    1
    25     5     6    1
    26     6     7    1
    27     7     8    1
    28     8    35    1
    29    35    36    1
    30    36    37   ar
    31    37    38   ar
    32    38    39   ar
    33    39    40   ar
    34    40    41   ar
    35    41    42    1
    36     8     9    1
    37     9    10    1
    38     5    11    1
    39    11    12    2
    40    16    17   ar
    41    17    18   ar
    42    25    20   ar
    43    18    13   ar
    44    11     1   am
    45    34    29   ar
    46    10     5    1
    47    41    36   ar
@<TRIPOS>MOLECULE
*****
 42 47 0 0 0
SMALL
GASTEIGER

@<TRIPOS>ATOM
      1 N         139.3594  142.9778  156.9838 N.am    1  UNL1       -0.1892
      2 C         139.7693  141.8017  156.1478 C.2     1  UNL1        0.3220
      3 O         140.1989  141.8479  154.7115 O.2     1  UNL1       -0.2512
      4 N         139.6740  140.5712  157.0004 N.am    1  UNL1       -0.2211
      5 C         139.2053  140.9868  158.3634 C.3     1  UNL1        0.1391
      6 C         138.7338  141.5495  159.6715 C.3     1  UNL1        0.0449
      7 C         138.5005  140.6379  160.8395 C.3     1  UNL1        0.0746
      8 N         138.7388  139.1635  160.6996 N.3     1  UNL1       -0.2676
      9 C         139.2103  138.6008  159.3916 C.3     1  UNL1        0.0746
     10 C         139.4436  139.5125  158.2235 C.3     1  UNL1        0.0449
     11 C         139.0109  142.4741  158.3532 C.2     1  UNL1        0.2529
     12 O         138.5490  143.3109  159.5092 O.2     1  UNL1       -0.2724
     13 C         139.2029  147.2642  155.6230 C.ar    1  UNL1        0.0811
     14 C         138.2365  146.2634  155.0621 C.ar    1  UNL1        0.0204
     15 C         138.2886  144.8346  155.5157 C.ar    1  UNL1        0.0185
     16 C         139.3072  144.4066  156.5302 C.ar    1  UNL1        0.0813
     17 C         140.2736  145.4073  157.0910 C.ar    1  UNL1        0.1141
     18 N         140.2215  146.8360  156.6374 N.ar    1  UNL1       -0.2425
     19 C         138.1457  149.3846  157.4632 C.3     1  UNL1        0.0311
     20 C         138.6222  149.7531  156.0894 C.ar    1  UNL1       -0.0204
     21 C         138.5700  151.1820  155.6358 C.ar    1  UNL1       -0.0031
     22 C         139.0464  151.5506  154.2621 C.ar    1  UNL1        0.0137
     23 C         139.5750  150.4904  153.3420 C.ar    1  UNL1        0.0012
     24 C         139.6272  149.0616  153.7956 C.ar    1  UNL1        0.0012
     25 C         139.1508  148.6930  155.1693 C.ar    1  UNL1        0.0137
     26 C         138.9942  152.9794  153.8085 C.2     1  UNL1        0.0729
     27 O         138.0818  153.3772  152.6863 O.co2   1  UNL1       -0.5446
     28 O         139.8545  154.0105  154.4770 O.co2   1  UNL1       -0.5446
     29 C         139.9917  139.1710  156.5664 C.ar    1  UNL1        0.1583
     30 C         141.3958  138.6537  156.6708 C.ar    1  UNL1        0.1335
     31 N         141.7133  137.2534  156.2368 N.ar    1  UNL1       -0.2378
     32 C         140.6269  136.3705  155.6982 C.ar    1  UNL1        0.1196
     33 C         139.2228  136.8878  155.5937 C.ar    1  UNL1        0.1210
     34 N         138.9052  138.2880  156.0278 N.ar    1  UNL1       -0.2255
     35 C         138.5055  138.2519  161.8678 C.3     1  UNL1        0.1183
     36 C         139.5197  138.1705  162.9699 C.ar    1  UNL1        0.0712
     37 N         140.7032  137.2590  162.8343 N.ar    1  UNL1       -0.2471
     38 C         141.7174  137.1777  163.9365 C.ar    1  UNL1        0.0985
     39 C         141.5481  138.0078  165.1742 C.ar    1  UNL1        0.0203
     40 C         140.3646  138.9194  165.3099 C.ar    1  UNL1       -0.0015
     41 C         139.3504  139.0007  164.2077 C.ar    1  UNL1       -0.0069
     42 C         138.1669  139.9122  164.3434 C.3     1  UNL1        0.0323
@<TRIPOS>UNITY_ATOM_ATTR
27 1
charge -1
@<TRIPOS>BOND
     1    19    20    1
     2    20    21   ar
     3    21    22   ar
     4    22    26    1
     5    26    27   ar
     6    26    28   ar
     7    22    23   ar
     8    23    24   ar
     9    24    25   ar
    10    25    13    1
    11    13    14   ar
    12    14    15   ar
    13    15    16   ar
    14    16     1    1
    15     1     2   am
    16     2     3    2
    17     2     4   am
    18     4    29    1
    19    29    30   ar
    20    30    31   ar
    21    31    32   ar
    22    32    33   ar
    23    33    34   ar
    24     4     5    1
    25     5     6    1
    26     6     7    1
    27     7     8    1
    28     8    35    1
    29    35    36    1
    30    36    37   ar
    31    37    38   ar
    32    38    39   ar
    33    39    40   ar
    34    40    41   ar
    35    41    42    1
    36     8     9    1
    37     9    10    1
    38     5    11    1
    39    11    12    2
    40    16    17   ar
    41    17    18   ar
    42    25    20   ar
    43    18    13   ar
    44    11     1   am
    45    34    29   ar
    46    10     5    1
    47    41    36   ar
@<TRIPOS>MOLECULE
*****
 42 47 0 0 0
SMALL
GASTEIGER

@<TRIPOS>ATOM
      1 N         143.0905  140.2214  160.3582 N.am    1  UNL1       -0.1892
      2 C         143.7463  141.2309  159.4632 C.2     1  UNL1        0.3220
      3 O         144.2560  142.5787  159.8793 O.2     1  UNL1       -0.2512
      4 N         143.8029  140.6556  158.0790 N.am    1  UNL1       -0.2211
      5 C         143.1820  139.2907  158.1185 C.3     1  UNL1        0.1391
      6 C         142.5372  137.9501  158.3113 C.3     1  UNL1        0.0449
      7 C         142.3836  137.0174  157.1467 C.3     1  UNL1        0.0746
      8 N         142.8748  137.4252  155.7893 N.3     1  UNL1       -0.2676
      9 C         143.5195  138.7657  155.5965 C.3     1  UNL1        0.0746
     10 C         143.6731  139.6985  156.7611 C.3     1  UNL1        0.0449
     11 C         142.7417  139.0223  159.5271 C.2     1  UNL1        0.2529
     12 O         142.0705  137.7741  160.0184 O.2     1  UNL1       -0.2724
     13 C         142.3068  140.7054  164.7629 C.ar    1  UNL1        0.0811
     14 C         141.4399  141.4138  163.7646 C.ar    1  UNL1        0.0204
     15 C         141.7011  141.2525  162.2964 C.ar    1  UNL1        0.0185
     16 C         142.8292  140.3827  161.8264 C.ar    1  UNL1        0.0813
     17 C         143.6961  139.6743  162.8247 C.ar    1  UNL1        0.1141
     18 N         143.4349  139.8357  164.2929 N.ar    1  UNL1       -0.2425
     19 C         143.7078  142.8621  166.3076 C.3     1  UNL1        0.0311
     20 C         142.7461  141.9450  167.0035 C.ar    1  UNL1       -0.0204
     21 C         142.4849  142.1064  168.4718 C.ar    1  UNL1       -0.0031
     22 C         141.5232  141.1894  169.1677 C.ar    1  UNL1        0.0137
     23 C         140.8227  140.1110  168.3952 C.ar    1  UNL1        0.0012
     24 C         141.0839  139.9497  166.9270 C.ar    1  UNL1        0.0012
     25 C         142.0456  140.8667  166.2311 C.ar    1  UNL1        0.0137
     26 C         141.2620  141.3507  170.6359 C.2     1  UNL1        0.0729
     27 O         140.2507  140.4778  171.3181 O.co2   1  UNL1       -0.5446
     28 O         142.0121  142.3849  171.4219 O.co2   1  UNL1       -0.5446
     29 C         144.3791  141.3273  156.8680 C.ar    1  UNL1        0.1583
     30 C         145.8291  141.1472  156.5290 C.ar    1  UNL1        0.1335
     31 N         146.4053  141.8190  155.3179 N.ar    1  UNL1       -0.2378
     32 C         145.5315  142.6709  154.4457 C.ar    1  UNL1        0.1196
     33 C         144.0814  142.8510  154.7846 C.ar    1  UNL1        0.1210
     34 N         143.5053  142.1792  155.9957 N.ar    1  UNL1       -0.2255
     35 C         142.7212  136.4923  154.6247 C.3     1  UNL1        0.1183
     36 C         142.9778  135.0249  154.8001 C.ar    1  UNL1        0.0712
     37 N         143.8929  134.5485  155.8890 N.ar    1  UNL1       -0.2471
     38 C         144.1496  133.0811  156.0644 C.ar    1  UNL1        0.0985
     39 C         143.4911  132.0901  155.1511 C.ar    1  UNL1        0.0203
     40 C         142.5759  132.5665  154.0622 C.ar    1  UNL1       -0.0015
     41 C         142.3193  134.0339  153.8867 C.ar    1  UNL1       -0.0069
     42 C         141.4042  134.5103  152.7979 C.3     1  UNL1        0.0323
@<TRIPOS>UNITY_ATOM_ATTR
27 1
charge -1
@<TRIPOS>BOND
     1    19    20    1
     2    20    21   ar
     3    21    22   ar
     4    22    26    1
     5    26    27   ar
     6    26    28   ar
     7    22    23   ar
     8    23    24   ar
     9    24    25   ar
    10    25    13    1
    11    13    14   ar
    12    14    15   ar
    13    15    16   ar
    14    16     1    1
    15     1     2   am
    16     2     3    2
    17     2     4   am
    18     4    29    1
    19    29    30   ar
    20    30    31   ar
    21    31    32   ar
    22    32    33   ar
    23    33    34   ar
    24     4     5    1
    25     5     6    1
    26     6     7    1
    27     7     8    1
    28     8    35    1
    29    35    36    1
    30    36    37   ar
    31    37    38   ar
    32    38    39   ar
    33    39    40   ar
    34    40    41   ar
    35    41    42    1
    36     8     9    1
    37     9    10    1
    38     5    11    1
    39    11    12    2
    40    16    17   ar
    41    17    18   ar
    42    25    20   ar
    43    18    13   ar
    44    11     1   am
    45    34    29   ar
    46    10     5    1
    47    41    36   ar
@<TRIPOS>MOLECULE
*****
 42 47 0 0 0
SMALL
GASTEIGER

@<TRIPOS>ATOM
      1 N         141.1209  139.4918  156.6969 N.am    1  UNL1       -0.1892
      2 C         140.2768  140.3407  155.7931 C.2     1  UNL1        0.3220
      3 O         139.7881  139.9586  154.4275 O.2     1  UNL1       -0.2512
      4 N         140.0072  141.6387  156.4948 N.am    1  UNL1       -0.2211
      5 C         140.6847  141.5922  157.8323 C.3     1  UNL1        0.1391
      6 C         141.4112  141.4016  159.1307 C.3     1  UNL1        0.0449
      7 C         141.4020  142.4906  160.1621 C.3     1  UNL1        0.0746
      8 N         140.6663  143.7703  159.8951 N.3     1  UNL1       -0.2676
      9 C         139.9399  143.9609  158.5967 C.3     1  UNL1        0.0746
     10 C         139.9491  142.8718  157.5653 C.3     1  UNL1        0.0449
     11 C         141.3730  140.2653  157.9573 C.2     1  UNL1        0.2529
     12 O         142.1730  139.7945  159.1356 O.2     1  UNL1       -0.2724
     13 C         142.6317  135.3517  155.7874 C.ar    1  UNL1        0.0811
     14 C         143.6019  136.4814  155.9678 C.ar    1  UNL1        0.0204
     15 C         143.0984  137.8614  156.2710 C.ar    1  UNL1        0.0185
     16 C         141.6245  138.1117  156.3938 C.ar    1  UNL1        0.0813
     17 C         140.6543  136.9822  156.2134 C.ar    1  UNL1        0.1141
     18 N         141.1579  135.6022  155.9102 N.ar    1  UNL1       -0.2425
     19 C         141.7876  133.9679  153.2629 C.3     1  UNL1        0.0311
     20 C         142.7132  133.2799  154.2220 C.ar    1  UNL1       -0.0204
     21 C         143.2168  131.8998  153.9187 C.ar    1  UNL1       -0.0031
     22 C         144.1424  131.2116  154.8778 C.ar    1  UNL1        0.0137
     23 C         144.5645  131.9036  156.1400 C.ar    1  UNL1        0.0012
     24 C         144.0609  133.2836  156.4432 C.ar    1  UNL1        0.0012
     25 C         143.1353  133.9717  155.4842 C.ar    1  UNL1        0.0137
     26 C         144.6460  129.8316  154.5746 C.2     1  UNL1        0.0729
     27 O         144.8498  128.8464  155.6871 O.co2   1  UNL1       -0.5446
     28 O         144.9458  129.4368  153.1588 O.co2   1  UNL1       -0.5446
     29 C         139.2016  142.7826  155.9540 C.ar    1  UNL1        0.1583
     30 C         137.7154  142.8143  156.1545 C.ar    1  UNL1        0.1335
     31 N         136.9099  143.9582  155.6136 N.ar    1  UNL1       -0.2378
     32 C         137.5904  145.0705  154.8723 C.ar    1  UNL1        0.1196
     33 C         139.0766  145.0389  154.6718 C.ar    1  UNL1        0.1210
     34 N         139.8822  143.8950  155.2126 N.ar    1  UNL1       -0.2255
     35 C         140.6572  144.8594  160.9266 C.3     1  UNL1        0.1183
     36 C         139.8636  144.6908  162.1882 C.ar    1  UNL1        0.0712
     37 N         138.4136  144.3133  162.1174 N.ar    1  UNL1       -0.2471
     38 C         137.6200  144.1447  163.3791 C.ar    1  UNL1        0.0985
     39 C         138.2764  144.3536  164.7116 C.ar    1  UNL1        0.0203
     40 C         139.7264  144.7311  164.7824 C.ar    1  UNL1       -0.0015
     41 C         140.5200  144.8997  163.5207 C.ar    1  UNL1       -0.0069
     42 C         141.9700  145.2772  163.5916 C.3     1  UNL1        0.0323
@<TRIPOS>UNITY_ATOM_ATTR
27 1
charge -1
@<TRIPOS>BOND
     1    19    20    1
     2    20    21   ar
     3    21    22   ar
     4    22    26    1
     5    26    27   ar
     6    26    28   ar
     7    22    23   ar
     8    23    24   ar
     9    24    25   ar
    10    25    13    1
    11    13    14   ar
    12    14    15   ar
    13    15    16   ar
    14    16     1    1
    15     1     2   am
    16     2     3    2
    17     2     4   am
    18     4    29    1
    19    29    30   ar
    20    30    31   ar
    21    31    32   ar
    22    32    33   ar
    23    33    34   ar
    24     4     5    1
    25     5     6    1
    26     6     7    1
    27     7     8    1
    28     8    35    1
    29    35    36    1
    30    36    37   ar
    31    37    38   ar
    32    38    39   ar
    33    39    40   ar
    34    40    41   ar
    35    41    42    1
    36     8     9    1
    37     9    10    1
    38     5    11    1
    39    11    12    2
    40    16    17   ar
    41    17    18   ar
    42    25    20   ar
    43    18    13   ar
    44    11     1   am
    45    34    29   ar
    46    10     5    1
    47    41    36   ar
@<TRIPOS>MOLECULE
*****
 42 47 0 0 0
SMALL
GASTEIGER

@<TRIPOS>ATOM
      1 N         140.5246  139.8631  160.6141 N.am    1  UNL1       -0.1892
      2 C         141.4416  139.0759  159.7255 C.2     1  UNL1        0.3220
      3 O         142.7568  138.4762  160.1258 O.2     1  UNL1       -0.2512
      4 N         140.8124  138.9939  158.3663 N.am    1  UNL1       -0.2211
      5 C         139.5064  139.7304  158.4148 C.3     1  UNL1        0.1391
      6 C         138.2326  140.4968  158.6141 C.3     1  UNL1        0.0449
      7 C         137.2731  140.6663  157.4737 C.3     1  UNL1        0.0746
      8 N         137.5874  140.0693  156.1340 N.3     1  UNL1       -0.2676
      9 C         138.8613  139.3029  155.9347 C.3     1  UNL1        0.0746
     10 C         139.8208  139.1334  157.0751 C.3     1  UNL1        0.0449
     11 C         139.3286  140.2675  159.8040 C.2     1  UNL1        0.2529
     12 O         138.1600  141.0685  160.2967 O.2     1  UNL1       -0.2724
     13 C         141.2365  140.8397  164.9487 C.ar    1  UNL1        0.0811
     14 C         140.0737  139.9776  164.5553 C.ar    1  UNL1        0.0204
     15 C         139.8364  139.6521  163.1104 C.ar    1  UNL1        0.0185
     16 C         140.7619  140.1886  162.0590 C.ar    1  UNL1        0.0813
     17 C         141.9246  141.0507  162.4524 C.ar    1  UNL1        0.1141
     18 N         142.1619  141.3762  163.8972 N.ar    1  UNL1       -0.2425
     19 C         142.9922  139.0688  166.6166 C.3     1  UNL1        0.0311
     20 C         142.3516  140.2798  167.2275 C.ar    1  UNL1       -0.0204
     21 C         142.5889  140.6054  168.6725 C.ar    1  UNL1       -0.0031
     22 C         141.9484  141.8163  169.2834 C.ar    1  UNL1        0.0137
     23 C         141.0705  142.7018  168.4494 C.ar    1  UNL1        0.0012
     24 C         140.8332  142.3762  167.0046 C.ar    1  UNL1        0.0012
     25 C         141.4738  141.1653  166.3936 C.ar    1  UNL1        0.0137
     26 C         142.1857  142.1419  170.7283 C.2     1  UNL1        0.0729
     27 O         142.8252  143.4444  171.1084 O.co2   1  UNL1       -0.5446
     28 O         141.7834  141.1649  171.7931 O.co2   1  UNL1       -0.5446
     29 C         141.3879  138.2977  157.1689 C.ar    1  UNL1        0.1583
     30 C         142.3703  139.0102  156.2872 C.ar    1  UNL1        0.1335
     31 N         142.9458  138.3139  155.0898 N.ar    1  UNL1       -0.2378
     32 C         142.5390  136.9051  154.7738 C.ar    1  UNL1        0.1196
     33 C         141.5566  136.1925  155.6555 C.ar    1  UNL1        0.1210
     34 N         140.9811  136.8888  156.8529 N.ar    1  UNL1       -0.2255
     35 C         136.6278  140.2388  154.9936 C.3     1  UNL1        0.1183
     36 C         135.1645  140.4247  155.2660 C.ar    1  UNL1        0.0712
     37 N         134.5360  139.7748  156.4629 N.ar    1  UNL1       -0.2471
     38 C         133.0726  139.9606  156.7352 C.ar    1  UNL1        0.0985
     39 C         132.2379  140.7964  155.8107 C.ar    1  UNL1        0.0203
     40 C         132.8665  141.4463  154.6138 C.ar    1  UNL1       -0.0015
     41 C         134.3297  141.2604  154.3415 C.ar    1  UNL1       -0.0069
     42 C         134.9583  141.9104  153.1446 C.3     1  UNL1        0.0323
@<TRIPOS>UNITY_ATOM_ATTR
27 1
charge -1
@<TRIPOS>BOND
     1    19    20    1
     2    20    21   ar
     3    21    22   ar
     4    22    26    1
     5    26    27   ar
     6    26    28   ar
     7    22    23   ar
     8    23    24   ar
     9    24    25   ar
    10    25    13    1
    11    13    14   ar
    12    14    15   ar
    13    15    16   ar
    14    16     1    1
    15     1     2   am
    16     2     3    2
    17     2     4   am
    18     4    29    1
    19    29    30   ar
    20    30    31   ar
    21    31    32   ar
    22    32    33   ar
    23    33    34   ar
    24     4     5    1
    25     5     6    1
    26     6     7    1
    27     7     8    1
    28     8    35    1
    29    35    36    1
    30    36    37   ar
    31    37    38   ar
    32    38    39   ar
    33    39    40   ar
    34    40    41   ar
    35    41    42    1
    36     8     9    1
    37     9    10    1
    38     5    11    1
    39    11    12    2
    40    16    17   ar
    41    17    18   ar
    42    25    20   ar
    43    18    13   ar
    44    11     1   am
    45    34    29   ar
    46    10     5    1
    47    41    36   ar
