@<TRIPOS>MOLECULE
*****
 38 43 0 0 0
SMALL
GASTEIGER

@<TRIPOS>ATOM
      1 C         142.8262  138.0767  159.4871 C.ar    1  UNL1        0.1233
      2 C         142.2454  137.8780  160.8558 C.ar    1  UNL1        0.1180
      3 N         142.7795  138.9595  161.7475 N.ar    1  UNL1       -0.2233
      4 N         143.6904  139.8265  160.9299 N.ar    1  UNL1       -0.0634
      5 N         143.7193  139.2809  159.5330 N.ar    1  UNL1       -0.1287
      6 C         142.4590  139.1418  163.2015 C.3     1  UNL1        0.1834
      7 C         143.5431  138.7494  164.1611 C.3     1  UNL1        0.0386
      8 C         143.5326  138.8108  165.6598 C.3     1  UNL1        0.0301
      9 C         142.4356  139.2797  166.5691 C.ar    1  UNL1       -0.0084
     10 C         142.8368  139.1759  168.0107 C.ar    1  UNL1       -0.0030
     11 C         141.8805  139.5956  169.0873 C.ar    1  UNL1       -0.0002
     12 C         140.5229  140.1189  168.7224 C.ar    1  UNL1        0.0013
     13 C         140.1217  140.2227  167.2808 C.ar    1  UNL1        0.0146
     14 C         141.0781  139.8030  166.2042 C.ar    1  UNL1        0.0503
     15 N         140.4823  139.9868  164.8399 N.am    1  UNL1       -0.2515
     16 C         141.0968  139.6925  163.5035 C.2     1  UNL1        0.2521
     17 O         140.2353  139.9880  162.3117 O.2     1  UNL1       -0.2724
     18 C         139.0875  140.5376  164.8076 C.3     1  UNL1        0.1438
     19 C         138.8554  141.9704  164.4288 C.ar    1  UNL1        0.0794
     20 C         139.5227  143.0682  165.2030 C.ar    1  UNL1        0.0165
     21 C         139.2907  144.5010  164.8242 C.ar    1  UNL1        0.0029
     22 C         138.3913  144.8358  163.6713 C.ar    1  UNL1        0.0207
     23 C         137.7240  143.7378  162.8972 C.ar    1  UNL1        0.0985
     24 N         137.9560  142.3051  163.2760 N.ar    1  UNL1       -0.2464
     25 C         143.0867  135.1107  156.8633 C.ar    1  UNL1        0.1547
     26 C         143.3524  135.9660  158.0665 C.ar    1  UNL1        0.0400
     27 C         142.5605  137.2213  158.2840 C.ar    1  UNL1        0.0241
     28 C         141.5030  137.6211  157.2982 C.ar    1  UNL1        0.0033
     29 C         141.2373  136.7657  156.0951 C.ar    1  UNL1        0.0207
     30 C         142.0291  135.5105  155.8776 C.ar    1  UNL1        0.0994
     31 N         141.7634  134.6551  154.6743 N.ar    1  UNL1       -0.2839
     32 C         141.9752  135.0548  153.2442 C.ar    1  UNL1        0.1826
     33 N         141.5819  133.8966  152.3761 N.ar    1  UNL1       -0.2280
     34 C         141.1271  132.7810  153.2696 C.ar    1  UNL1        0.0786
     35 C         140.6448  131.4332  152.8214 C.3     1  UNL1        0.0538
     36 C         141.2392  133.2497  154.6900 C.ar    1  UNL1        0.0963
     37 C         144.4869  133.1403  157.8157 C.3     1  UNL1        0.2525
     38 O         143.8786  133.8554  156.6458 O.3     1  UNL1       -0.4700
@<TRIPOS>BOND
     1    37    38    1
     2    38    25    1
     3    25    26   ar
     4    26    27   ar
     5    27     1    1
     6     1     2   ar
     7     2     3   ar
     8     3     6    1
     9     6     7    1
    10     7     8    1
    11     8     9    1
    12     9    10   ar
    13    10    11   ar
    14    11    12   ar
    15    12    13   ar
    16    13    14   ar
    17    14    15    1
    18    15    18    1
    19    18    19    1
    20    19    20   ar
    21    20    21   ar
    22    21    22   ar
    23    22    23   ar
    24    23    24   ar
    25    15    16   am
    26    16    17    2
    27     3     4   ar
    28     4     5   ar
    29    27    28   ar
    30    28    29   ar
    31    29    30   ar
    32    30    31    1
    33    31    32   ar
    34    32    33   ar
    35    33    34   ar
    36    34    35    1
    37    34    36   ar
    38    30    25   ar
    39    36    31   ar
    40     5     1   ar
    41    16     6    1
    42    14     9   ar
    43    24    19   ar
@<TRIPOS>MOLECULE
*****
 38 43 0 0 0
SMALL
GASTEIGER

@<TRIPOS>ATOM
      1 C         143.5296  139.6051  160.3773 C.ar    1  UNL1        0.1233
      2 C         143.2778  140.2000  161.7311 C.ar    1  UNL1        0.1180
      3 N         142.7899  139.1065  162.6345 N.ar    1  UNL1       -0.2233
      4 N         142.7402  137.8357  161.8391 N.ar    1  UNL1       -0.0634
      5 N         143.1973  138.1439  160.4441 N.ar    1  UNL1       -0.1287
      6 C         142.4173  139.2573  164.0797 C.3     1  UNL1        0.1834
      7 C         143.4460  138.7951  165.0687 C.3     1  UNL1        0.0386
      8 C         143.3766  138.8119  166.5670 C.3     1  UNL1        0.0301
      9 C         142.2615  139.2948  167.4464 C.ar    1  UNL1       -0.0084
     10 C         142.5994  139.1326  168.8987 C.ar    1  UNL1       -0.0030
     11 C         141.6160  139.5560  169.9493 C.ar    1  UNL1       -0.0002
     12 C         140.2947  140.1415  169.5475 C.ar    1  UNL1        0.0013
     13 C         139.9569  140.3037  168.0951 C.ar    1  UNL1        0.0146
     14 C         140.9402  139.8803  167.0445 C.ar    1  UNL1        0.0503
     15 N         140.4078  140.1275  165.6641 N.am    1  UNL1       -0.2515
     16 C         141.0651  139.8502  164.3446 C.2     1  UNL1        0.2521
     17 O         140.2645  140.2140  163.1295 O.2     1  UNL1       -0.2724
     18 C         139.0368  140.7319  165.5940 C.3     1  UNL1        0.1438
     19 C         138.8418  142.0778  164.9609 C.ar    1  UNL1        0.0794
     20 C         139.6116  143.2623  165.4653 C.ar    1  UNL1        0.0165
     21 C         139.4167  144.6082  164.8323 C.ar    1  UNL1        0.0029
     22 C         138.4521  144.7695  163.6950 C.ar    1  UNL1        0.0207
     23 C         137.6823  143.5849  163.1907 C.ar    1  UNL1        0.0985
     24 N         137.8772  142.2390  163.8236 N.ar    1  UNL1       -0.2464
     25 C         144.5722  140.3896  156.6294 C.ar    1  UNL1        0.1547
     26 C         144.0754  139.6526  157.8376 C.ar    1  UNL1        0.0400
     27 C         144.0264  140.3420  159.1690 C.ar    1  UNL1        0.0241
     28 C         144.4742  141.7683  159.2920 C.ar    1  UNL1        0.0033
     29 C         144.9711  142.5052  158.0836 C.ar    1  UNL1        0.0207
     30 C         145.0201  141.8158  156.7524 C.ar    1  UNL1        0.0994
     31 N         145.5169  142.5528  155.5440 N.ar    1  UNL1       -0.2839
     32 C         144.6644  143.2226  154.5074 C.ar    1  UNL1        0.1826
     33 N         145.5741  143.8331  153.4829 N.ar    1  UNL1       -0.2280
     34 C         146.9889  143.5407  153.8863 C.ar    1  UNL1        0.0786
     35 C         148.2225  143.9650  153.1459 C.3     1  UNL1        0.0538
     36 C         146.9536  142.7494  155.1602 C.ar    1  UNL1        0.0963
     37 C         144.2941  138.2398  155.1972 C.3     1  UNL1        0.2525
     38 O         144.6212  139.7002  155.2981 O.3     1  UNL1       -0.4700
@<TRIPOS>BOND
     1    37    38    1
     2    38    25    1
     3    25    26   ar
     4    26    27   ar
     5    27     1    1
     6     1     2   ar
     7     2     3   ar
     8     3     6    1
     9     6     7    1
    10     7     8    1
    11     8     9    1
    12     9    10   ar
    13    10    11   ar
    14    11    12   ar
    15    12    13   ar
    16    13    14   ar
    17    14    15    1
    18    15    18    1
    19    18    19    1
    20    19    20   ar
    21    20    21   ar
    22    21    22   ar
    23    22    23   ar
    24    23    24   ar
    25    15    16   am
    26    16    17    2
    27     3     4   ar
    28     4     5   ar
    29    27    28   ar
    30    28    29   ar
    31    29    30   ar
    32    30    31    1
    33    31    32   ar
    34    32    33   ar
    35    33    34   ar
    36    34    35    1
    37    34    36   ar
    38    30    25   ar
    39    36    31   ar
    40     5     1   ar
    41    16     6    1
    42    14     9   ar
    43    24    19   ar
@<TRIPOS>MOLECULE
*****
 38 43 0 0 0
SMALL
GASTEIGER

@<TRIPOS>ATOM
      1 C         142.8524  137.9855  158.6048 C.ar    1  UNL1        0.1233
      2 C         142.4937  137.9550  160.0610 C.ar    1  UNL1        0.1180
      3 N         143.0456  139.1945  160.7005 N.ar    1  UNL1       -0.2233
      4 N         143.7454  139.9911  159.6395 N.ar    1  UNL1       -0.0634
      5 N         143.6260  139.2439  158.3443 N.ar    1  UNL1       -0.1287
      6 C         142.9199  139.5713  162.1469 C.3     1  UNL1        0.1834
      7 C         143.2365  138.4854  163.1322 C.3     1  UNL1        0.0386
      8 C         143.2056  138.5443  164.6307 C.3     1  UNL1        0.0301
      9 C         142.8504  139.7033  165.5141 C.ar    1  UNL1       -0.0084
     10 C         142.9475  139.3363  166.9653 C.ar    1  UNL1       -0.0030
     11 C         142.6326  140.3559  168.0194 C.ar    1  UNL1       -0.0002
     12 C         142.2205  141.7425  167.6224 C.ar    1  UNL1        0.0013
     13 C         142.1234  142.1095  166.1713 C.ar    1  UNL1        0.0146
     14 C         142.4383  141.0899  165.1171 C.ar    1  UNL1        0.0503
     15 N         142.2798  141.6598  163.7387 N.am    1  UNL1       -0.2515
     16 C         142.4941  140.9841  162.4168 C.2     1  UNL1        0.2521
     17 O         142.2503  141.8332  161.2046 O.2     1  UNL1       -0.2724
     18 C         141.8501  143.0955  163.6735 C.3     1  UNL1        0.1438
     19 C         140.3912  143.4436  163.6960 C.ar    1  UNL1        0.0794
     20 C         139.8461  144.3203  164.7841 C.ar    1  UNL1        0.0165
     21 C         138.3872  144.6685  164.8066 C.ar    1  UNL1        0.0029
     22 C         137.4734  144.1398  163.7410 C.ar    1  UNL1        0.0207
     23 C         138.0186  143.2630  162.6528 C.ar    1  UNL1        0.0985
     24 N         139.4775  142.9148  162.6303 N.ar    1  UNL1       -0.2464
     25 C         142.9716  134.6489  156.4595 C.ar    1  UNL1        0.1547
     26 C         143.3246  135.6933  157.4765 C.ar    1  UNL1        0.0400
     27 C         142.4994  136.9410  157.5878 C.ar    1  UNL1        0.0241
     28 C         141.3212  137.1441  156.6820 C.ar    1  UNL1        0.0033
     29 C         140.9682  136.0996  155.6650 C.ar    1  UNL1        0.0207
     30 C         141.7934  134.8521  155.5537 C.ar    1  UNL1        0.0994
     31 N         141.4403  133.8075  154.5366 N.ar    1  UNL1       -0.2839
     32 C         141.5322  133.9605  153.0473 C.ar    1  UNL1        0.1826
     33 N         141.0821  132.6742  152.4206 N.ar    1  UNL1       -0.2280
     34 C         140.7120  131.7262  153.5225 C.ar    1  UNL1        0.0786
     35 C         140.2089  130.3240  153.3475 C.3     1  UNL1        0.0538
     36 C         140.9334  132.4267  154.8303 C.ar    1  UNL1        0.0963
     37 C         144.4661  132.8337  157.5648 C.3     1  UNL1        0.2525
     38 O         143.7968  133.4013  156.3483 O.3     1  UNL1       -0.4700
@<TRIPOS>BOND
     1    37    38    1
     2    38    25    1
     3    25    26   ar
     4    26    27   ar
     5    27     1    1
     6     1     2   ar
     7     2     3   ar
     8     3     6    1
     9     6     7    1
    10     7     8    1
    11     8     9    1
    12     9    10   ar
    13    10    11   ar
    14    11    12   ar
    15    12    13   ar
    16    13    14   ar
    17    14    15    1
    18    15    18    1
    19    18    19    1
    20    19    20   ar
    21    20    21   ar
    22    21    22   ar
    23    22    23   ar
    24    23    24   ar
    25    15    16   am
    26    16    17    2
    27     3     4   ar
    28     4     5   ar
    29    27    28   ar
    30    28    29   ar
    31    29    30   ar
    32    30    31    1
    33    31    32   ar
    34    32    33   ar
    35    33    34   ar
    36    34    35    1
    37    34    36   ar
    38    30    25   ar
    39    36    31   ar
    40     5     1   ar
    41    16     6    1
    42    14     9   ar
    43    24    19   ar
@<TRIPOS>MOLECULE
*****
 38 43 0 0 0
SMALL
GASTEIGER

@<TRIPOS>ATOM
      1 C         142.7270  138.9382  159.7054 C.ar    1  UNL1        0.1233
      2 C         142.0652  139.1718  161.0311 C.ar    1  UNL1        0.1180
      3 N         143.1339  139.5000  162.0313 N.ar    1  UNL1       -0.2233
      4 N         144.4561  139.4692  161.3237 N.ar    1  UNL1       -0.0634
      5 N         144.2047  139.1220  159.8862 N.ar    1  UNL1       -0.1287
      6 C         142.9181  139.8053  163.4840 C.3     1  UNL1        0.1834
      7 C         143.1917  138.6770  164.4338 C.3     1  UNL1        0.0386
      8 C         143.0721  138.6634  165.9289 C.3     1  UNL1        0.0301
      9 C         142.6493  139.7746  166.8436 C.ar    1  UNL1       -0.0084
     10 C         142.6663  139.3393  168.2789 C.ar    1  UNL1       -0.0030
     11 C         142.2756  140.3034  169.3596 C.ar    1  UNL1       -0.0002
     12 C         141.8681  141.7027  169.0049 C.ar    1  UNL1        0.0013
     13 C         141.8511  142.1380  167.5696 C.ar    1  UNL1        0.0146
     14 C         142.2417  141.1739  166.4889 C.ar    1  UNL1        0.0503
     15 N         142.1563  141.8076  165.1320 N.am    1  UNL1       -0.2515
     16 C         142.4573  141.1986  163.7947 C.2     1  UNL1        0.2521
     17 O         142.2732  142.1022  162.6117 O.2     1  UNL1       -0.2724
     18 C         141.7109  143.2398  165.1095 C.3     1  UNL1        0.1438
     19 C         140.3715  143.5999  164.5383 C.ar    1  UNL1        0.0794
     20 C         139.1395  142.8838  165.0066 C.ar    1  UNL1        0.0165
     21 C         137.8000  143.2438  164.4355 C.ar    1  UNL1        0.0029
     22 C         137.6926  144.3199  163.3961 C.ar    1  UNL1        0.0207
     23 C         138.9246  145.0360  162.9277 C.ar    1  UNL1        0.0985
     24 N         140.2641  144.6760  163.4989 N.ar    1  UNL1       -0.2464
     25 C         141.5462  136.8761  156.5270 C.ar    1  UNL1        0.1547
     26 C         142.2402  137.2310  157.8084 C.ar    1  UNL1        0.0400
     27 C         142.0330  138.5832  158.4239 C.ar    1  UNL1        0.0241
     28 C         141.1317  139.5802  157.7580 C.ar    1  UNL1        0.0033
     29 C         140.4377  139.2251  156.4765 C.ar    1  UNL1        0.0207
     30 C         140.6449  137.8731  155.8610 C.ar    1  UNL1        0.0994
     31 N         139.9508  137.5181  154.5795 N.ar    1  UNL1       -0.2839
     32 C         140.6140  137.2684  153.2574 C.ar    1  UNL1        0.1826
     33 N         139.5447  136.9464  152.2560 N.ar    1  UNL1       -0.2280
     34 C         138.2207  136.9971  152.9590 C.ar    1  UNL1        0.0786
     35 C         136.8809  136.7397  152.3356 C.3     1  UNL1        0.0538
     36 C         138.4716  137.3504  154.3950 C.ar    1  UNL1        0.0963
     37 C         142.7578  134.5779  156.4999 C.3     1  UNL1        0.2525
     38 O         141.7534  135.5239  155.9114 O.3     1  UNL1       -0.4700
@<TRIPOS>BOND
     1    37    38    1
     2    38    25    1
     3    25    26   ar
     4    26    27   ar
     5    27     1    1
     6     1     2   ar
     7     2     3   ar
     8     3     6    1
     9     6     7    1
    10     7     8    1
    11     8     9    1
    12     9    10   ar
    13    10    11   ar
    14    11    12   ar
    15    12    13   ar
    16    13    14   ar
    17    14    15    1
    18    15    18    1
    19    18    19    1
    20    19    20   ar
    21    20    21   ar
    22    21    22   ar
    23    22    23   ar
    24    23    24   ar
    25    15    16   am
    26    16    17    2
    27     3     4   ar
    28     4     5   ar
    29    27    28   ar
    30    28    29   ar
    31    29    30   ar
    32    30    31    1
    33    31    32   ar
    34    32    33   ar
    35    33    34   ar
    36    34    35    1
    37    34    36   ar
    38    30    25   ar
    39    36    31   ar
    40     5     1   ar
    41    16     6    1
    42    14     9   ar
    43    24    19   ar
@<TRIPOS>MOLECULE
*****
 38 43 0 0 0
SMALL
GASTEIGER

@<TRIPOS>ATOM
      1 C         142.2420  137.6754  157.3749 C.ar    1  UNL1        0.1233
      2 C         142.5285  137.9241  158.8261 C.ar    1  UNL1        0.1180
      3 N         142.4286  139.4004  159.0720 N.ar    1  UNL1       -0.2233
      4 N         142.0804  140.0642  157.7727 N.ar    1  UNL1       -0.0634
      5 N         141.9650  138.9981  156.7238 N.ar    1  UNL1       -0.1287
      6 C         142.6399  140.0917  160.3864 C.3     1  UNL1        0.1834
      7 C         144.0586  140.4561  160.7094 C.3     1  UNL1        0.0386
      8 C         144.5923  141.1459  161.9298 C.3     1  UNL1        0.0301
      9 C         143.8391  141.6417  163.1285 C.ar    1  UNL1       -0.0084
     10 C         144.7585  142.2761  164.1296 C.ar    1  UNL1       -0.0030
     11 C         144.2050  142.8389  165.4050 C.ar    1  UNL1       -0.0002
     12 C         142.7321  142.7673  165.6794 C.ar    1  UNL1        0.0013
     13 C         141.8127  142.1329  164.6783 C.ar    1  UNL1        0.0146
     14 C         142.3662  141.5701  163.4029 C.ar    1  UNL1        0.0503
     15 N         141.2827  140.9850  162.5463 N.am    1  UNL1       -0.2515
     16 C         141.4044  140.3271  161.2039 C.2     1  UNL1        0.2521
     17 O         140.1211  139.8401  160.5989 O.2     1  UNL1       -0.2724
     18 C         139.8936  141.0691  163.1063 C.3     1  UNL1        0.1438
     19 C         139.3963  140.0067  164.0413 C.ar    1  UNL1        0.0794
     20 C         138.5084  140.3765  165.1923 C.ar    1  UNL1        0.0165
     21 C         138.0111  139.3142  166.1273 C.ar    1  UNL1        0.0029
     22 C         138.4016  137.8821  165.9112 C.ar    1  UNL1        0.0207
     23 C         139.2895  137.5124  164.7601 C.ar    1  UNL1        0.0985
     24 N         139.7869  138.5747  163.8251 N.ar    1  UNL1       -0.2464
     25 C         143.3095  134.0064  156.3033 C.ar    1  UNL1        0.1547
     26 C         143.3177  135.3430  156.9839 C.ar    1  UNL1        0.0400
     27 C         142.2339  136.3387  156.6943 C.ar    1  UNL1        0.0241
     28 C         141.1420  135.9978  155.7240 C.ar    1  UNL1        0.0033
     29 C         141.1338  134.6612  155.0433 C.ar    1  UNL1        0.0207
     30 C         142.2176  133.6655  155.3330 C.ar    1  UNL1        0.0994
     31 N         142.2094  132.3288  154.6523 N.ar    1  UNL1       -0.2839
     32 C         142.6603  132.0512  153.2488 C.ar    1  UNL1        0.1826
     33 N         142.4784  130.5860  152.9848 N.ar    1  UNL1       -0.2280
     34 C         141.9152  129.9578  154.2250 C.ar    1  UNL1        0.0786
     35 C         141.5776  128.5073  154.4034 C.3     1  UNL1        0.0538
     36 C         141.7490  131.0350  155.2556 C.ar    1  UNL1        0.0963
     37 C         144.8440  132.7822  158.0053 C.3     1  UNL1        0.2525
     38 O         144.3933  133.0107  156.5929 O.3     1  UNL1       -0.4700
@<TRIPOS>BOND
     1    37    38    1
     2    38    25    1
     3    25    26   ar
     4    26    27   ar
     5    27     1    1
     6     1     2   ar
     7     2     3   ar
     8     3     6    1
     9     6     7    1
    10     7     8    1
    11     8     9    1
    12     9    10   ar
    13    10    11   ar
    14    11    12   ar
    15    12    13   ar
    16    13    14   ar
    17    14    15    1
    18    15    18    1
    19    18    19    1
    20    19    20   ar
    21    20    21   ar
    22    21    22   ar
    23    22    23   ar
    24    23    24   ar
    25    15    16   am
    26    16    17    2
    27     3     4   ar
    28     4     5   ar
    29    27    28   ar
    30    28    29   ar
    31    29    30   ar
    32    30    31    1
    33    31    32   ar
    34    32    33   ar
    35    33    34   ar
    36    34    35    1
    37    34    36   ar
    38    30    25   ar
    39    36    31   ar
    40     5     1   ar
    41    16     6    1
    42    14     9   ar
    43    24    19   ar
@<TRIPOS>MOLECULE
*****
 38 43 0 0 0
SMALL
GASTEIGER

@<TRIPOS>ATOM
      1 C         143.3505  137.1528  156.2259 C.ar    1  UNL1        0.1233
      2 C         142.6219  137.9468  157.2694 C.ar    1  UNL1        0.1180
      3 N         143.3106  139.2720  157.4083 N.ar    1  UNL1       -0.2233
      4 N         144.4649  139.2971  156.4507 N.ar    1  UNL1       -0.0634
      5 N         144.4895  137.9874  155.7199 N.ar    1  UNL1       -0.1287
      6 C         142.9146  140.3780  158.3410 C.3     1  UNL1        0.1834
      7 C         141.9354  141.3730  157.7922 C.3     1  UNL1        0.0386
      8 C         141.3500  142.5784  158.4661 C.3     1  UNL1        0.0301
      9 C         141.5991  143.0867  159.8552 C.ar    1  UNL1       -0.0084
     10 C         140.8081  144.3303  160.1338 C.ar    1  UNL1       -0.0030
     11 C         140.9132  145.0022  161.4708 C.ar    1  UNL1       -0.0002
     12 C         141.8094  144.4305  162.5291 C.ar    1  UNL1        0.0013
     13 C         142.6004  143.1869  162.2505 C.ar    1  UNL1        0.0146
     14 C         142.4953  142.5150  160.9136 C.ar    1  UNL1        0.0503
     15 N         143.3636  141.2938  160.8441 N.am    1  UNL1       -0.2515
     16 C         143.5503  140.3428  159.6993 C.2     1  UNL1        0.2521
     17 O         144.4978  139.2063  159.9451 O.2     1  UNL1       -0.2724
     18 C         144.1492  140.9826  162.0835 C.3     1  UNL1        0.1438
     19 C         143.5812  140.0579  163.1191 C.ar    1  UNL1        0.0794
     20 C         144.3736  139.7343  164.3509 C.ar    1  UNL1        0.0165
     21 C         143.8058  138.8096  165.3865 C.ar    1  UNL1        0.0029
     22 C         142.4456  138.2085  165.1903 C.ar    1  UNL1        0.0207
     23 C         141.6532  138.5322  163.9584 C.ar    1  UNL1        0.0985
     24 N         142.2210  139.4569  162.9228 N.ar    1  UNL1       -0.2464
     25 C         142.6822  133.2414  156.2850 C.ar    1  UNL1        0.1547
     26 C         143.0314  134.6266  156.7422 C.ar    1  UNL1        0.0400
     27 C         143.0013  135.7675  155.7688 C.ar    1  UNL1        0.0241
     28 C         142.6221  135.5231  154.3383 C.ar    1  UNL1        0.0033
     29 C         142.2729  134.1378  153.8811 C.ar    1  UNL1        0.0207
     30 C         142.3030  132.9970  154.8544 C.ar    1  UNL1        0.0994
     31 N         141.9538  131.6116  154.3972 N.ar    1  UNL1       -0.2839
     32 C         142.7939  130.7362  153.5153 C.ar    1  UNL1        0.1826
     33 N         142.0625  129.4421  153.3147 N.ar    1  UNL1       -0.2280
     34 C         140.7704  129.5176  154.0726 C.ar    1  UNL1        0.0786
     35 C         139.7283  128.4414  154.1483 C.3     1  UNL1        0.0538
     36 C         140.7031  130.8585  154.7417 C.ar    1  UNL1        0.0963
     37 C         143.8869  131.1679  157.2848 C.3     1  UNL1        0.2525
     38 O         142.7123  132.1004  157.2583 O.3     1  UNL1       -0.4700
@<TRIPOS>BOND
     1    37    38    1
     2    38    25    1
     3    25    26   ar
     4    26    27   ar
     5    27     1    1
     6     1     2   ar
     7     2     3   ar
     8     3     6    1
     9     6     7    1
    10     7     8    1
    11     8     9    1
    12     9    10   ar
    13    10    11   ar
    14    11    12   ar
    15    12    13   ar
    16    13    14   ar
    17    14    15    1
    18    15    18    1
    19    18    19    1
    20    19    20   ar
    21    20    21   ar
    22    21    22   ar
    23    22    23   ar
    24    23    24   ar
    25    15    16   am
    26    16    17    2
    27     3     4   ar
    28     4     5   ar
    29    27    28   ar
    30    28    29   ar
    31    29    30   ar
    32    30    31    1
    33    31    32   ar
    34    32    33   ar
    35    33    34   ar
    36    34    35    1
    37    34    36   ar
    38    30    25   ar
    39    36    31   ar
    40     5     1   ar
    41    16     6    1
    42    14     9   ar
    43    24    19   ar
@<TRIPOS>MOLECULE
*****
 38 43 0 0 0
SMALL
GASTEIGER

@<TRIPOS>ATOM
      1 C         142.9307  137.2281  157.5160 C.ar    1  UNL1        0.1233
      2 C         142.6421  137.4773  158.9667 C.ar    1  UNL1        0.1180
      3 N         143.0997  138.8668  159.2984 N.ar    1  UNL1       -0.2233
      4 N         143.6711  139.4763  158.0527 N.ar    1  UNL1       -0.0634
      5 N         143.5667  138.4636  156.9511 N.ar    1  UNL1       -0.1287
      6 C         143.0028  139.5302  160.6402 C.3     1  UNL1        0.1834
      7 C         144.1797  139.3343  161.5495 C.3     1  UNL1        0.0386
      8 C         144.3862  139.8617  162.9385 C.3     1  UNL1        0.0301
      9 C         143.4671  140.7151  163.7613 C.ar    1  UNL1       -0.0084
     10 C         144.0596  141.0212  165.1048 C.ar    1  UNL1       -0.0030
     11 C         143.2993  141.8641  166.0853 C.ar    1  UNL1       -0.0002
     12 C         141.9465  142.4009  165.7223 C.ar    1  UNL1        0.0013
     13 C         141.3540  142.0948  164.3788 C.ar    1  UNL1        0.0146
     14 C         142.1143  141.2519  163.3982 C.ar    1  UNL1        0.0503
     15 N         141.3466  141.0678  162.1228 N.am    1  UNL1       -0.2515
     16 C         141.7419  140.3016  160.8953 C.2     1  UNL1        0.2521
     17 O         140.7447  140.3077  159.7749 O.2     1  UNL1       -0.2724
     18 C         140.0061  141.7388  162.0675 C.3     1  UNL1        0.1438
     19 C         139.9182  143.2250  161.8838 C.ar    1  UNL1        0.0794
     20 C         140.7855  143.9076  160.8680 C.ar    1  UNL1        0.0165
     21 C         140.6977  145.3937  160.6842 C.ar    1  UNL1        0.0029
     22 C         139.7426  146.1972  161.5163 C.ar    1  UNL1        0.0207
     23 C         138.8753  145.5145  162.5321 C.ar    1  UNL1        0.0985
     24 N         138.9631  144.0283  162.7158 N.ar    1  UNL1       -0.2464
     25 C         142.9706  133.4099  156.4348 C.ar    1  UNL1        0.1547
     26 C         143.2661  134.6727  157.1883 C.ar    1  UNL1        0.0400
     27 C         142.6352  135.9652  156.7625 C.ar    1  UNL1        0.0241
     28 C         141.7088  135.9949  155.5832 C.ar    1  UNL1        0.0033
     29 C         141.4133  134.7320  154.8297 C.ar    1  UNL1        0.0207
     30 C         142.0442  133.4395  155.2555 C.ar    1  UNL1        0.0994
     31 N         141.7486  132.1766  154.5019 N.ar    1  UNL1       -0.2839
     32 C         142.3903  131.7463  153.2162 C.ar    1  UNL1        0.1826
     33 N         141.7978  130.4261  152.8215 N.ar    1  UNL1       -0.2280
     34 C         140.7899  130.0403  153.8633 C.ar    1  UNL1        0.0786
     35 C         139.9584  128.7919  153.8661 C.3     1  UNL1        0.0538
     36 C         140.7596  131.1222  154.9019 C.ar    1  UNL1        0.0963
     37 C         144.8416  131.6262  156.1744 C.3     1  UNL1        0.2525
     38 O         143.6015  132.1173  156.8607 O.3     1  UNL1       -0.4700
@<TRIPOS>BOND
     1    37    38    1
     2    38    25    1
     3    25    26   ar
     4    26    27   ar
     5    27     1    1
     6     1     2   ar
     7     2     3   ar
     8     3     6    1
     9     6     7    1
    10     7     8    1
    11     8     9    1
    12     9    10   ar
    13    10    11   ar
    14    11    12   ar
    15    12    13   ar
    16    13    14   ar
    17    14    15    1
    18    15    18    1
    19    18    19    1
    20    19    20   ar
    21    20    21   ar
    22    21    22   ar
    23    22    23   ar
    24    23    24   ar
    25    15    16   am
    26    16    17    2
    27     3     4   ar
    28     4     5   ar
    29    27    28   ar
    30    28    29   ar
    31    29    30   ar
    32    30    31    1
    33    31    32   ar
    34    32    33   ar
    35    33    34   ar
    36    34    35    1
    37    34    36   ar
    38    30    25   ar
    39    36    31   ar
    40     5     1   ar
    41    16     6    1
    42    14     9   ar
    43    24    19   ar
@<TRIPOS>MOLECULE
*****
 38 43 0 0 0
SMALL
GASTEIGER

@<TRIPOS>ATOM
      1 C         142.3363  138.2712  157.9938 C.ar    1  UNL1        0.1233
      2 C         141.3342  138.8082  158.9723 C.ar    1  UNL1        0.1180
      3 N         141.9171  140.0364  159.6060 N.ar    1  UNL1       -0.2233
      4 N         143.2796  140.2586  159.0191 N.ar    1  UNL1       -0.0634
      5 N         143.5386  139.1676  158.0227 N.ar    1  UNL1       -0.1287
      6 C         141.2541  140.8923  160.6442 C.3     1  UNL1        0.1834
      7 C         139.8602  141.3436  160.3223 C.3     1  UNL1        0.0386
      8 C         138.9407  142.1977  161.1438 C.3     1  UNL1        0.0301
      9 C         139.1877  142.8115  162.4900 C.ar    1  UNL1       -0.0084
     10 C         137.9997  143.5971  162.9605 C.ar    1  UNL1       -0.0030
     11 C         138.0394  144.2939  164.2882 C.ar    1  UNL1       -0.0002
     12 C         139.2671  144.2051  165.1454 C.ar    1  UNL1        0.0013
     13 C         140.4551  143.4195  164.6749 C.ar    1  UNL1        0.0146
     14 C         140.4155  142.7228  163.3472 C.ar    1  UNL1        0.0503
     15 N         141.6993  141.9983  163.0699 N.am    1  UNL1       -0.2515
     16 C         142.0726  141.1836  161.8670 C.2     1  UNL1        0.2521
     17 O         143.4458  140.5806  161.8899 O.2     1  UNL1       -0.2724
     18 C         142.7487  142.1022  164.1367 C.3     1  UNL1        0.1438
     19 C         142.8065  141.0810  165.2340 C.ar    1  UNL1        0.0794
     20 C         142.5246  141.4858  166.6506 C.ar    1  UNL1        0.0165
     21 C         142.5823  140.4647  167.7480 C.ar    1  UNL1        0.0029
     22 C         142.9220  139.0390  167.4287 C.ar    1  UNL1        0.0207
     23 C         143.2038  138.6343  166.0120 C.ar    1  UNL1        0.0985
     24 N         143.1461  139.6553  164.9147 N.ar    1  UNL1       -0.2464
     25 C         142.9773  134.7030  156.3793 C.ar    1  UNL1        0.1547
     26 C         143.1477  135.9222  157.2362 C.ar    1  UNL1        0.0400
     27 C         142.1659  137.0519  157.1369 C.ar    1  UNL1        0.0241
     28 C         141.0138  136.9624  156.1806 C.ar    1  UNL1        0.0033
     29 C         140.8434  135.7431  155.3237 C.ar    1  UNL1        0.0207
     30 C         141.8252  134.6135  155.4230 C.ar    1  UNL1        0.0994
     31 N         141.6548  133.3941  154.5660 N.ar    1  UNL1       -0.2839
     32 C         142.0244  133.2761  153.1171 C.ar    1  UNL1        0.1826
     33 N         141.6829  131.8879  152.6632 N.ar    1  UNL1       -0.2280
     34 C         141.1022  131.1479  153.8315 C.ar    1  UNL1        0.0786
     35 C         140.6231  129.7265  153.8250 C.3     1  UNL1        0.0538
     36 C         141.0848  132.0788  155.0076 C.ar    1  UNL1        0.0963
     37 C         144.4667  133.1366  157.8209 C.3     1  UNL1        0.2525
     38 O         143.9592  133.5733  156.4786 O.3     1  UNL1       -0.4700
@<TRIPOS>BOND
     1    37    38    1
     2    38    25    1
     3    25    26   ar
     4    26    27   ar
     5    27     1    1
     6     1     2   ar
     7     2     3   ar
     8     3     6    1
     9     6     7    1
    10     7     8    1
    11     8     9    1
    12     9    10   ar
    13    10    11   ar
    14    11    12   ar
    15    12    13   ar
    16    13    14   ar
    17    14    15    1
    18    15    18    1
    19    18    19    1
    20    19    20   ar
    21    20    21   ar
    22    21    22   ar
    23    22    23   ar
    24    23    24   ar
    25    15    16   am
    26    16    17    2
    27     3     4   ar
    28     4     5   ar
    29    27    28   ar
    30    28    29   ar
    31    29    30   ar
    32    30    31    1
    33    31    32   ar
    34    32    33   ar
    35    33    34   ar
    36    34    35    1
    37    34    36   ar
    38    30    25   ar
    39    36    31   ar
    40     5     1   ar
    41    16     6    1
    42    14     9   ar
    43    24    19   ar
@<TRIPOS>MOLECULE
*****
 38 43 0 0 0
SMALL
GASTEIGER

@<TRIPOS>ATOM
      1 C         142.3517  138.9207  160.8810 C.ar    1  UNL1        0.1233
      2 C         141.3541  138.4008  159.8888 C.ar    1  UNL1        0.1180
      3 N         142.0063  138.3896  158.5381 N.ar    1  UNL1       -0.2233
      4 N         143.4070  138.9026  158.6955 N.ar    1  UNL1       -0.0634
      5 N         143.6205  139.2308  160.1435 N.ar    1  UNL1       -0.1287
      6 C         141.3696  137.9437  157.2552 C.3     1  UNL1        0.1834
      7 C         140.0459  138.5716  156.9330 C.3     1  UNL1        0.0386
      8 C         139.1666  138.3397  155.7401 C.3     1  UNL1        0.0301
      9 C         139.3935  137.4227  154.5749 C.ar    1  UNL1       -0.0084
     10 C         138.2608  137.4923  153.5940 C.ar    1  UNL1       -0.0030
     11 C         138.2907  136.6504  152.3530 C.ar    1  UNL1       -0.0002
     12 C         139.4531  135.7388  152.0929 C.ar    1  UNL1        0.0013
     13 C         140.5858  135.6691  153.0738 C.ar    1  UNL1        0.0146
     14 C         140.5560  136.5111  154.3148 C.ar    1  UNL1        0.0503
     15 N         141.7785  136.2913  155.1557 N.am    1  UNL1       -0.2515
     16 C         142.1407  136.9289  156.4643 C.2     1  UNL1        0.2521
     17 O         143.4465  136.4942  157.0608 O.2     1  UNL1       -0.2724
     18 C         142.7702  135.3034  154.6166 C.3     1  UNL1        0.1438
     19 C         142.8359  133.9183  155.1889 C.ar    1  UNL1        0.0794
     20 C         141.6959  132.9660  154.9805 C.ar    1  UNL1        0.0165
     21 C         141.7616  131.5809  155.5527 C.ar    1  UNL1        0.0029
     22 C         142.9673  131.1483  156.3332 C.ar    1  UNL1        0.0207
     23 C         144.1073  132.1007  156.5415 C.ar    1  UNL1        0.0985
     24 N         144.0417  133.4858  155.9693 N.ar    1  UNL1       -0.2464
     25 C         141.9875  140.6424  164.4381 C.ar    1  UNL1        0.1547
     26 C         142.2182  140.4641  162.9667 C.ar    1  UNL1        0.0400
     27 C         142.1210  139.0991  162.3524 C.ar    1  UNL1        0.0241
     28 C         141.7931  137.9125  163.2094 C.ar    1  UNL1        0.0033
     29 C         141.5625  138.0910  164.6808 C.ar    1  UNL1        0.0207
     30 C         141.6596  139.4559  165.2951 C.ar    1  UNL1        0.0994
     31 N         141.4289  139.6342  166.7665 N.ar    1  UNL1       -0.2839
     32 C         142.4546  139.4607  167.8473 C.ar    1  UNL1        0.1826
     33 N         141.7916  139.7367  169.1641 N.ar    1  UNL1       -0.2280
     34 C         140.3562  140.0808  168.8974 C.ar    1  UNL1        0.0786
     35 C         139.3258  140.4273  169.9309 C.3     1  UNL1        0.0538
     36 C         140.1320  140.0174  167.4156 C.ar    1  UNL1        0.0963
     37 C         143.3827  142.4738  165.6421 C.3     1  UNL1        0.2525
     38 O         142.0847  142.0074  165.0524 O.3     1  UNL1       -0.4700
@<TRIPOS>BOND
     1    37    38    1
     2    38    25    1
     3    25    26   ar
     4    26    27   ar
     5    27     1    1
     6     1     2   ar
     7     2     3   ar
     8     3     6    1
     9     6     7    1
    10     7     8    1
    11     8     9    1
    12     9    10   ar
    13    10    11   ar
    14    11    12   ar
    15    12    13   ar
    16    13    14   ar
    17    14    15    1
    18    15    18    1
    19    18    19    1
    20    19    20   ar
    21    20    21   ar
    22    21    22   ar
    23    22    23   ar
    24    23    24   ar
    25    15    16   am
    26    16    17    2
    27     3     4   ar
    28     4     5   ar
    29    27    28   ar
    30    28    29   ar
    31    29    30   ar
    32    30    31    1
    33    31    32   ar
    34    32    33   ar
    35    33    34   ar
    36    34    35    1
    37    34    36   ar
    38    30    25   ar
    39    36    31   ar
    40     5     1   ar
    41    16     6    1
    42    14     9   ar
    43    24    19   ar
