@<TRIPOS>MOLECULE
*****
 77 85 0 0 0
SMALL
GASTEIGER

@<TRIPOS>ATOM
      1 C         143.2452  142.5643  166.1811 C.2     1  UNL1        0.2269
      2 O         141.8597  142.8239  165.6681 O.2     1  UNL1       -0.2747
      3 N         143.4678  142.3045  167.6416 N.am    1  UNL1       -0.3041
      4 H         144.3771  142.1341  167.9782 H       1  UNL1        0.1494
      5 C         142.3048  142.3043  168.5890 C.3     1  UNL1        0.0894
      6 C         141.6951  141.0059  169.0277 C.3     1  UNL1        0.0212
      7 C         141.3167  139.9728  168.0082 C.3     1  UNL1        0.0018
      8 C         142.3821  139.2795  167.2118 C.3     1  UNL1        0.0015
      9 C         142.2362  139.1401  165.7254 C.3     1  UNL1        0.0173
     10 C         141.7570  137.8463  165.1369 C.3     1  UNL1        0.0722
     11 N         140.4100  137.7740  164.4809 N.3     1  UNL1       -0.2693
     12 C         140.3074  137.6746  162.9877 C.3     1  UNL1        0.0769
     13 C         138.9713  137.8021  162.3177 C.3     1  UNL1        0.0437
     14 C         138.8176  138.6820  161.1125 C.ar    1  UNL1       -0.0207
     15 C         139.9644  138.8592  160.1621 C.ar    1  UNL1       -0.0029
     16 C         139.8107  139.7391  158.9571 C.ar    1  UNL1        0.0155
     17 C         138.5102  140.4416  158.7024 C.ar    1  UNL1        0.0644
     18 C         137.3632  140.2644  159.6528 C.ar    1  UNL1        0.0155
     19 C         137.5170  139.3845  160.8579 C.ar    1  UNL1       -0.0029
     20 N         138.3564  141.3214  157.4973 N.pl3   1  UNL1       -0.2187
     21 H         138.8800  142.1519  157.4241 H       1  UNL1        0.1734
     22 S         137.4049  140.9359  156.4037 S.O2    1  UNL1        0.0558
     23 C         136.4534  140.5504  155.3101 C.3     1  UNL1        0.1996
     24 O         138.0544  139.5868  156.3142 O.2     1  UNL1       -0.1544
     25 O         136.7554  142.2850  156.4933 O.2     1  UNL1       -0.1544
     26 C         139.1656  137.8011  165.3180 C.3     1  UNL1        0.1200
     27 C         138.4614  139.1007  165.5730 C.3     1  UNL1        0.2226
     28 O         139.2042  140.3964  165.4329 O.3     1  UNL1       -0.4740
     29 C         139.0893  141.1937  164.1676 C.ar    1  UNL1        0.1387
     30 C         137.7992  141.8796  163.8279 C.ar    1  UNL1        0.0382
     31 C         137.6843  142.6770  162.5626 C.ar    1  UNL1        0.0190
     32 C         138.8594  142.7884  161.6369 C.ar    1  UNL1        0.0646
     33 C         140.1494  142.1025  161.9766 C.ar    1  UNL1        0.0190
     34 C         140.2643  141.3051  163.2420 C.ar    1  UNL1        0.0382
     35 N         138.7444  143.5857  160.3716 N.pl3   1  UNL1       -0.2187
     36 H         137.9381  143.5074  159.8121 H       1  UNL1        0.1734
     37 S         139.8576  144.5023  159.9588 S.O2    1  UNL1        0.0558
     38 C         140.9708  145.4190  159.5460 C.3     1  UNL1        0.1996
     39 O         140.1950  143.5814  158.8239 O.2     1  UNL1       -0.1544
     40 O         139.5202  145.4233  161.0937 O.2     1  UNL1       -0.1544
     41 C         144.4080  142.5645  165.2336 C.3     1  UNL1        0.1113
     42 C         143.4285  139.0753  159.6712 C.3     1  UNL1        0.0101
     43 C         143.5845  140.3430  160.4576 C.3     1  UNL1        0.0510
     44 C         143.7522  139.4138  161.6231 C.3     1  UNL1        0.0101
     45 C         143.3841  141.0071  159.1276 C.2     1  UNL1        0.0261
     46 C         143.1491  140.4523  157.7539 C.2     1  UNL1       -0.0072
     47 C         143.0819  138.9684  157.5458 C.3     1  UNL1        0.0379
     48 C         142.8469  138.4136  156.1721 C.3     1  UNL1        0.1139
     49 C         142.7797  136.9296  155.9640 C.2     1  UNL1        0.1849
     50 N         142.5447  136.3748  154.5903 N.2     1  UNL1       -0.1767
     51 C         142.3770  137.3040  153.4248 C.3     1  UNL1        0.3241
     52 C         142.4442  138.7880  153.6329 C.3     1  UNL1        0.1152
     53 C         142.6792  139.3428  155.0066 C.3     1  UNL1        0.1325
     54 O         142.7464  140.8268  155.2147 O.3     1  UNL1       -0.3538
     55 C         142.9813  141.3815  156.5884 C.3     1  UNL1        0.1360
     56 C         143.0486  142.8655  156.7965 C.3     1  UNL1        0.0556
     57 C         143.2835  143.4203  158.1703 C.3     1  UNL1        0.0981
     58 N         143.4513  142.4911  159.3358 N.pl3   1  UNL1       -0.2907
     59 C         143.6932  142.7441  160.7943 C.ar    1  UNL1        0.0476
     60 C         143.8492  144.0119  161.5808 C.ar    1  UNL1        0.0142
     61 C         144.0875  143.9520  163.0605 C.ar    1  UNL1       -0.0025
     62 C         144.1697  142.6243  163.7538 C.ar    1  UNL1       -0.0133
     63 C         144.0138  141.3567  162.9674 C.ar    1  UNL1       -0.0065
     64 C         143.7755  141.4165  161.4877 C.ar    1  UNL1       -0.0045
     65 C         142.5273  134.8783  154.6915 C.ar    1  UNL1        0.2221
     66 C         142.3363  133.8049  153.6614 C.ar    1  UNL1        0.0702
     67 C         142.3694  132.3613  154.0675 C.ar    1  UNL1        0.0234
     68 C         142.5937  131.9912  155.5038 C.ar    1  UNL1        0.0934
     69 C         142.7847  133.0647  156.5338 C.ar    1  UNL1        0.0194
     70 C         142.7515  134.5083  156.1277 C.ar    1  UNL1        0.0511
     71 C         142.9075  135.7760  156.9141 C.3     1  UNL1        0.0981
     72 C         143.0753  134.8468  158.0796 C.3     1  UNL1        0.0148
     73 C         143.0986  136.8496  157.9442 C.3     1  UNL1        0.0148
     74 S         142.6268  130.5476  155.9099 S.3     1  UNL1       -0.0500
     75 O         143.0994  130.9431  157.2774 O.2     1  UNL1       -0.1802
     76 O         142.1543  130.1521  154.5423 O.2     1  UNL1       -0.1802
     77 O         142.6600  129.1040  156.3159 O.co2   1  UNL1       -0.7201
@<TRIPOS>UNITY_ATOM_ATTR
50 1
charge 1
77 1
charge -1
@<TRIPOS>BOND
     1    42    43    1
     2    43    44    1
     3    43    45    1
     4    45    46    2
     5    46    47    1
     6    47    48    1
     7    48    49    1
     8    49    50    2
     9    50    51    1
    10    51    52    1
    11    52    53    1
    12    53    54    1
    13    54    55    1
    14    55    56    1
    15    56    57    1
    16    57    58    1
    17    58    59    1
    18    59    60   ar
    19    60    61   ar
    20    61    62   ar
    21    62    41    1
    22    41     1    1
    23     1     2    2
    24     1     3   am
    25     3     5    1
    26     5     6    1
    27     6     7    1
    28     7     8    1
    29     8     9    1
    30     9    10    1
    31    10    11    1
    32    11    26    1
    33    26    27    1
    34    27    28    1
    35    28    29    1
    36    29    30   ar
    37    30    31   ar
    38    31    32   ar
    39    32    35    1
    40    35    37    1
    41    37    38    1
    42    37    39    2
    43    37    40    2
    44    32    33   ar
    45    33    34   ar
    46    11    12    1
    47    12    13    1
    48    13    14    1
    49    14    15   ar
    50    15    16   ar
    51    16    17   ar
    52    17    20    1
    53    20    22    1
    54    22    23    1
    55    22    24    2
    56    22    25    2
    57    17    18   ar
    58    18    19   ar
    59    62    63   ar
    60    63    64   ar
    61    50    65    1
    62    65    66   ar
    63    66    67   ar
    64    67    68   ar
    65    68    74    1
    66    74    75    2
    67    74    76    2
    68    74    77    1
    69    68    69   ar
    70    69    70   ar
    71    70    71    1
    72    71    72    1
    73    71    73    1
    74    64    43    1
    75    70    65   ar
    76    58    45    1
    77    64    59   ar
    78    55    46    1
    79    34    29   ar
    80    19    14   ar
    81    53    48    1
    82    71    49    1
    83     3     4    1
    84    35    36    1
    85    20    21    1
@<TRIPOS>MOLECULE
*****
 77 85 0 0 0
SMALL
GASTEIGER

@<TRIPOS>ATOM
      1 C         144.3637  142.4557  165.4087 C.2     1  UNL1        0.2269
      2 O         144.7510  143.8683  165.7322 O.2     1  UNL1       -0.2747
      3 N         143.2412  141.7963  166.1539 N.am    1  UNL1       -0.3041
      4 H         142.9871  140.8692  165.9415 H       1  UNL1        0.1494
      5 C         142.5060  142.5496  167.2226 C.3     1  UNL1        0.0894
      6 C         142.5784  142.0903  168.6487 C.3     1  UNL1        0.0212
      7 C         141.5366  141.1566  169.1897 C.3     1  UNL1        0.0018
      8 C         140.2295  140.9944  168.4721 C.3     1  UNL1        0.0015
      9 C         139.9367  139.7274  167.7241 C.3     1  UNL1        0.0173
     10 C         140.5742  139.4805  166.3890 C.3     1  UNL1        0.0722
     11 N         139.8428  138.6924  165.3430 N.3     1  UNL1       -0.2693
     12 C         138.5357  139.1932  164.8041 C.3     1  UNL1        0.0769
     13 C         137.9702  140.4926  165.2960 C.3     1  UNL1        0.0437
     14 C         138.3926  141.7834  164.6591 C.ar    1  UNL1       -0.0207
     15 C         139.5405  142.5614  165.2309 C.ar    1  UNL1       -0.0029
     16 C         139.9629  143.8522  164.5940 C.ar    1  UNL1        0.0155
     17 C         139.2374  144.3648  163.3855 C.ar    1  UNL1        0.0644
     18 C         138.0894  143.5868  162.8137 C.ar    1  UNL1        0.0155
     19 C         137.6670  142.2961  163.4505 C.ar    1  UNL1       -0.0029
     20 N         139.6597  145.6556  162.7486 N.pl3   1  UNL1       -0.2187
     21 H         139.6426  146.4905  163.2700 H       1  UNL1        0.1734
     22 S         140.1082  145.6742  161.3174 S.O2    1  UNL1        0.0558
     23 C         140.5567  145.6928  159.8861 C.3     1  UNL1        0.1996
     24 O         139.0570  146.6964  161.0013 O.2     1  UNL1       -0.1544
     25 O         141.1594  144.6519  161.6335 O.2     1  UNL1       -0.1544
     26 C         140.4186  137.4034  164.8360 C.3     1  UNL1        0.1200
     27 C         141.2951  137.4010  163.6187 C.3     1  UNL1        0.2226
     28 O         140.6810  137.3219  162.2525 O.3     1  UNL1       -0.4740
     29 C         140.5088  138.5674  161.4344 C.ar    1  UNL1        0.1387
     30 C         140.7521  139.9115  162.0543 C.ar    1  UNL1        0.0382
     31 C         140.5799  141.1569  161.2363 C.ar    1  UNL1        0.0190
     32 C         140.1645  141.0582  159.7983 C.ar    1  UNL1        0.0646
     33 C         139.9212  139.7142  159.1784 C.ar    1  UNL1        0.0190
     34 C         140.0934  138.4687  159.9965 C.ar    1  UNL1        0.0382
     35 N         139.9923  142.3037  158.9803 N.pl3   1  UNL1       -0.2187
     36 H         140.6817  143.0062  159.0022 H       1  UNL1        0.1734
     37 S         138.7699  142.4790  158.1290 S.O2    1  UNL1        0.0558
     38 C         137.5473  142.6543  157.2777 C.3     1  UNL1        0.1996
     39 O         139.5582  142.0839  156.9156 O.2     1  UNL1       -0.1544
     40 O         137.9815  142.8742  159.3424 O.2     1  UNL1       -0.1544
     41 C         145.0989  141.7026  164.3400 C.3     1  UNL1        0.1113
     42 C         143.4996  138.6067  158.6891 C.3     1  UNL1        0.0101
     43 C         143.7502  139.8170  159.5391 C.3     1  UNL1        0.0510
     44 C         144.0329  138.8093  160.6137 C.3     1  UNL1        0.0101
     45 C         143.4151  140.5715  158.2867 C.2     1  UNL1        0.0261
     46 C         143.0298  140.1131  156.9114 C.2     1  UNL1       -0.0072
     47 C         142.9273  138.6472  156.6107 C.3     1  UNL1        0.0379
     48 C         142.5420  138.1888  155.2354 C.3     1  UNL1        0.1139
     49 C         142.4394  136.7228  154.9348 C.2     1  UNL1        0.1849
     50 N         142.0542  136.2644  153.5595 N.2     1  UNL1       -0.1767
     51 C         141.7715  137.2720  152.4849 C.3     1  UNL1        0.3241
     52 C         141.8741  138.7380  152.7855 C.3     1  UNL1        0.1152
     53 C         142.2593  139.1964  154.1608 C.3     1  UNL1        0.1325
     54 O         142.3619  140.6624  154.4615 O.3     1  UNL1       -0.3538
     55 C         142.7472  141.1207  155.8367 C.3     1  UNL1        0.1360
     56 C         142.8497  142.5867  156.1374 C.3     1  UNL1        0.0556
     57 C         143.2350  143.0451  157.5128 C.3     1  UNL1        0.0981
     58 N         143.5177  142.0375  158.5874 N.pl3   1  UNL1       -0.2907
     59 C         143.9162  142.1889  160.0255 C.ar    1  UNL1        0.0476
     60 C         144.1667  143.3992  160.8755 C.ar    1  UNL1        0.0142
     61 C         144.5610  143.2371  162.3137 C.ar    1  UNL1       -0.0025
     62 C         144.7047  141.8647  162.9018 C.ar    1  UNL1       -0.0133
     63 C         144.4541  140.6545  162.0519 C.ar    1  UNL1       -0.0065
     64 C         144.0599  140.8166  160.6137 C.ar    1  UNL1       -0.0045
     65 C         142.0340  134.7646  153.5594 C.ar    1  UNL1        0.2221
     66 C         141.7243  133.7650  152.4848 C.ar    1  UNL1        0.0702
     67 C         141.7875  132.2968  152.7854 C.ar    1  UNL1        0.0234
     68 C         142.1603  131.8282  154.1607 C.ar    1  UNL1        0.0934
     69 C         142.4700  132.8278  155.2354 C.ar    1  UNL1        0.0194
     70 C         142.4068  134.2960  154.9347 C.ar    1  UNL1        0.0511
     71 C         142.6574  135.5062  155.7847 C.3     1  UNL1        0.0981
     72 C         142.9401  134.4987  156.8593 C.3     1  UNL1        0.0148
     73 C         142.9670  136.5059  156.8594 C.3     1  UNL1        0.0148
     74 S         142.2235  130.3600  154.4614 S.3     1  UNL1       -0.0500
     75 O         140.7921  130.3900  154.9089 O.2     1  UNL1       -0.1802
     76 O         143.6548  130.3299  154.0139 O.2     1  UNL1       -0.1802
     77 O         142.2866  128.8918  154.7620 O.co2   1  UNL1       -0.7201
@<TRIPOS>UNITY_ATOM_ATTR
50 1
charge 1
77 1
charge -1
@<TRIPOS>BOND
     1    42    43    1
     2    43    44    1
     3    43    45    1
     4    45    46    2
     5    46    47    1
     6    47    48    1
     7    48    49    1
     8    49    50    2
     9    50    51    1
    10    51    52    1
    11    52    53    1
    12    53    54    1
    13    54    55    1
    14    55    56    1
    15    56    57    1
    16    57    58    1
    17    58    59    1
    18    59    60   ar
    19    60    61   ar
    20    61    62   ar
    21    62    41    1
    22    41     1    1
    23     1     2    2
    24     1     3   am
    25     3     5    1
    26     5     6    1
    27     6     7    1
    28     7     8    1
    29     8     9    1
    30     9    10    1
    31    10    11    1
    32    11    26    1
    33    26    27    1
    34    27    28    1
    35    28    29    1
    36    29    30   ar
    37    30    31   ar
    38    31    32   ar
    39    32    35    1
    40    35    37    1
    41    37    38    1
    42    37    39    2
    43    37    40    2
    44    32    33   ar
    45    33    34   ar
    46    11    12    1
    47    12    13    1
    48    13    14    1
    49    14    15   ar
    50    15    16   ar
    51    16    17   ar
    52    17    20    1
    53    20    22    1
    54    22    23    1
    55    22    24    2
    56    22    25    2
    57    17    18   ar
    58    18    19   ar
    59    62    63   ar
    60    63    64   ar
    61    50    65    1
    62    65    66   ar
    63    66    67   ar
    64    67    68   ar
    65    68    74    1
    66    74    75    2
    67    74    76    2
    68    74    77    1
    69    68    69   ar
    70    69    70   ar
    71    70    71    1
    72    71    72    1
    73    71    73    1
    74    64    43    1
    75    70    65   ar
    76    58    45    1
    77    64    59   ar
    78    55    46    1
    79    34    29   ar
    80    19    14   ar
    81    53    48    1
    82    71    49    1
    83     3     4    1
    84    35    36    1
    85    20    21    1
@<TRIPOS>MOLECULE
*****
 77 85 0 0 0
SMALL
GASTEIGER

@<TRIPOS>ATOM
      1 C         139.7398  137.6642  163.1189 C.2     1  UNL1        0.2269
      2 O         140.9962  136.8759  162.8953 O.2     1  UNL1       -0.2747
      3 N         139.5494  138.4255  164.3973 N.am    1  UNL1       -0.3041
      4 H         138.7247  138.9428  164.5440 H       1  UNL1        0.1494
      5 C         140.6156  138.3984  165.4521 C.3     1  UNL1        0.0894
      6 C         141.7554  139.3716  165.3914 C.3     1  UNL1        0.0212
      7 C         142.2678  139.8445  164.0633 C.3     1  UNL1        0.0018
      8 C         143.6045  139.3793  163.5663 C.3     1  UNL1        0.0015
      9 C         144.8473  139.7053  164.3404 C.3     1  UNL1        0.0173
     10 C         145.6594  140.9141  163.9807 C.3     1  UNL1        0.0722
     11 N         145.0497  142.0091  163.1567 N.3     1  UNL1       -0.2693
     12 C         144.3863  143.1738  163.8301 C.3     1  UNL1        0.0769
     13 C         144.4338  143.3030  165.3238 C.3     1  UNL1        0.0437
     14 C         143.2446  142.9090  166.1489 C.ar    1  UNL1       -0.0207
     15 C         141.8596  143.0859  165.6007 C.ar    1  UNL1       -0.0029
     16 C         140.6705  142.6919  166.4257 C.ar    1  UNL1        0.0155
     17 C         140.8663  142.1210  167.7988 C.ar    1  UNL1        0.0644
     18 C         142.2513  141.9440  168.3471 C.ar    1  UNL1        0.0155
     19 C         143.4404  142.3381  167.5221 C.ar    1  UNL1       -0.0029
     20 N         139.6771  141.7270  168.6238 N.pl3   1  UNL1       -0.2187
     21 H         138.7805  142.0548  168.3831 H       1  UNL1        0.1734
     22 S         139.8540  140.8335  169.8156 S.O2    1  UNL1        0.0558
     23 C         140.0309  139.9401  171.0075 C.3     1  UNL1        0.1996
     24 O         139.8742  139.6349  168.9141 O.2     1  UNL1       -0.1544
     25 O         139.8338  142.0322  170.7172 O.2     1  UNL1       -0.1544
     26 C         145.1034  141.9396  161.6593 C.3     1  UNL1        0.1200
     27 C         144.9275  143.1862  160.8437 C.3     1  UNL1        0.2226
     28 O         143.8158  143.2755  159.8406 O.3     1  UNL1       -0.4740
     29 C         142.3925  143.3685  160.3047 C.ar    1  UNL1        0.1387
     30 C         141.8990  142.4655  161.3962 C.ar    1  UNL1        0.0382
     31 C         140.4757  142.5585  161.8603 C.ar    1  UNL1        0.0190
     32 C         139.5458  143.5545  161.2330 C.ar    1  UNL1        0.0646
     33 C         140.0392  144.4573  160.1416 C.ar    1  UNL1        0.0190
     34 C         141.4626  144.3644  159.6774 C.ar    1  UNL1        0.0382
     35 N         138.1224  143.6474  161.6972 N.pl3   1  UNL1       -0.2187
     36 H         137.4008  143.7986  161.0448 H       1  UNL1        0.1734
     37 S         137.7985  143.5099  163.1552 S.O2    1  UNL1        0.0558
     38 C         137.4746  143.3723  164.6134 C.3     1  UNL1        0.1996
     39 O         138.4670  144.8247  163.4278 O.2     1  UNL1       -0.1544
     40 O         137.1300  142.1950  162.8828 O.2     1  UNL1       -0.1544
     41 C         138.6737  137.6911  162.0641 C.3     1  UNL1        0.1113
     42 C         142.3780  140.9873  157.6495 C.3     1  UNL1        0.0101
     43 C         141.0983  140.6652  158.3628 C.3     1  UNL1        0.0510
     44 C         141.9428  139.6660  159.0966 C.3     1  UNL1        0.0101
     45 C         140.5215  141.7318  157.4798 C.2     1  UNL1        0.0261
     46 C         141.1368  142.6029  156.4249 C.2     1  UNL1       -0.0072
     47 C         142.5963  142.4747  156.1039 C.3     1  UNL1        0.0379
     48 C         143.2116  143.3457  155.0490 C.3     1  UNL1        0.1139
     49 C         144.6712  143.2175  154.7279 C.2     1  UNL1        0.1849
     50 N         145.2865  144.0885  153.6731 N.2     1  UNL1       -0.1767
     51 C         144.4421  145.0877  152.9392 C.3     1  UNL1        0.3241
     52 C         142.9825  145.2159  153.2603 C.3     1  UNL1        0.1152
     53 C         142.3672  144.3449  154.3151 C.3     1  UNL1        0.1325
     54 O         140.9075  144.4731  154.6362 O.3     1  UNL1       -0.3538
     55 C         140.2924  143.6021  155.6910 C.3     1  UNL1        0.1360
     56 C         138.8327  143.7303  156.0121 C.3     1  UNL1        0.0556
     57 C         138.2175  142.8592  157.0670 C.3     1  UNL1        0.0981
     58 N         139.0619  141.8600  157.8008 N.pl3   1  UNL1       -0.2907
     59 C         138.7367  140.8726  158.8822 C.ar    1  UNL1        0.0476
     60 C         137.4570  140.5506  159.5955 C.ar    1  UNL1        0.0142
     61 C         137.4360  139.4901  160.6561 C.ar    1  UNL1       -0.0025
     62 C         138.6947  138.7517  161.0034 C.ar    1  UNL1       -0.0133
     63 C         139.9742  139.0738  160.2901 C.ar    1  UNL1       -0.0065
     64 C         139.9953  140.1342  159.2295 C.ar    1  UNL1       -0.0045
     65 C         146.7417  143.7386  153.5737 C.ar    1  UNL1        0.2221
     66 C         147.8448  144.2696  152.7070 C.ar    1  UNL1        0.0702
     67 C         149.2320  143.7133  152.8338 C.ar    1  UNL1        0.0234
     68 C         149.5161  142.6260  153.8273 C.ar    1  UNL1        0.0934
     69 C         148.4131  142.0950  154.6940 C.ar    1  UNL1        0.0194
     70 C         147.0259  142.6513  154.5673 C.ar    1  UNL1        0.0511
     71 C         145.7462  142.3293  155.2806 C.3     1  UNL1        0.0981
     72 C         146.5906  141.3300  156.0144 C.3     1  UNL1        0.0148
     73 C         144.6431  141.7983  156.1473 C.3     1  UNL1        0.0148
     74 S         150.9034  142.0697  153.9540 S.3     1  UNL1       -0.0500
     75 O         150.3897  140.9964  154.8673 O.2     1  UNL1       -0.1802
     76 O         151.4172  143.1430  153.0408 O.2     1  UNL1       -0.1802
     77 O         152.2907  141.5134  154.0808 O.co2   1  UNL1       -0.7201
@<TRIPOS>UNITY_ATOM_ATTR
50 1
charge 1
77 1
charge -1
@<TRIPOS>BOND
     1    42    43    1
     2    43    44    1
     3    43    45    1
     4    45    46    2
     5    46    47    1
     6    47    48    1
     7    48    49    1
     8    49    50    2
     9    50    51    1
    10    51    52    1
    11    52    53    1
    12    53    54    1
    13    54    55    1
    14    55    56    1
    15    56    57    1
    16    57    58    1
    17    58    59    1
    18    59    60   ar
    19    60    61   ar
    20    61    62   ar
    21    62    41    1
    22    41     1    1
    23     1     2    2
    24     1     3   am
    25     3     5    1
    26     5     6    1
    27     6     7    1
    28     7     8    1
    29     8     9    1
    30     9    10    1
    31    10    11    1
    32    11    26    1
    33    26    27    1
    34    27    28    1
    35    28    29    1
    36    29    30   ar
    37    30    31   ar
    38    31    32   ar
    39    32    35    1
    40    35    37    1
    41    37    38    1
    42    37    39    2
    43    37    40    2
    44    32    33   ar
    45    33    34   ar
    46    11    12    1
    47    12    13    1
    48    13    14    1
    49    14    15   ar
    50    15    16   ar
    51    16    17   ar
    52    17    20    1
    53    20    22    1
    54    22    23    1
    55    22    24    2
    56    22    25    2
    57    17    18   ar
    58    18    19   ar
    59    62    63   ar
    60    63    64   ar
    61    50    65    1
    62    65    66   ar
    63    66    67   ar
    64    67    68   ar
    65    68    74    1
    66    74    75    2
    67    74    76    2
    68    74    77    1
    69    68    69   ar
    70    69    70   ar
    71    70    71    1
    72    71    72    1
    73    71    73    1
    74    64    43    1
    75    70    65   ar
    76    58    45    1
    77    64    59   ar
    78    55    46    1
    79    34    29   ar
    80    19    14   ar
    81    53    48    1
    82    71    49    1
    83     3     4    1
    84    35    36    1
    85    20    21    1
@<TRIPOS>MOLECULE
*****
 77 85 0 0 0
SMALL
GASTEIGER

@<TRIPOS>ATOM
      1 C         143.1553  143.1542  162.6298 C.2     1  UNL1        0.2269
      2 O         141.7595  142.6074  162.6841 O.2     1  UNL1       -0.2747
      3 N         143.9034  143.4285  163.9006 N.am    1  UNL1       -0.3041
      4 H         144.8195  143.7873  163.8650 H       1  UNL1        0.1494
      5 C         143.2557  143.1559  165.2259 C.3     1  UNL1        0.0894
      6 C         143.4846  141.8444  165.9169 C.3     1  UNL1        0.0212
      7 C         143.0505  140.5662  165.2627 C.3     1  UNL1        0.0018
      8 C         143.9918  139.8306  164.3557 C.3     1  UNL1        0.0015
      9 C         143.5319  139.3858  162.9989 C.3     1  UNL1        0.0173
     10 C         142.8377  138.0659  162.8379 C.3     1  UNL1        0.0722
     11 N         141.3449  138.0154  162.7010 N.3     1  UNL1       -0.2693
     12 C         140.6868  138.5480  161.4627 C.3     1  UNL1        0.0769
     13 C         140.4722  140.0241  161.3032 C.3     1  UNL1        0.0437
     14 C         139.6377  140.5424  160.1696 C.ar    1  UNL1       -0.0207
     15 C         139.2097  141.9799  160.1495 C.ar    1  UNL1       -0.0029
     16 C         138.3752  142.4981  159.0159 C.ar    1  UNL1        0.0155
     17 C         137.9687  141.5790  157.9025 C.ar    1  UNL1        0.0644
     18 C         138.3967  140.1414  157.9225 C.ar    1  UNL1        0.0155
     19 C         139.2312  139.6232  159.0561 C.ar    1  UNL1       -0.0029
     20 N         137.1342  142.0973  156.7689 N.pl3   1  UNL1       -0.2187
     21 H         136.9588  143.0626  156.6880 H       1  UNL1        0.1734
     22 S         136.5670  141.1447  155.7586 S.O2    1  UNL1        0.0558
     23 C         135.9998  140.1921  154.7482 C.3     1  UNL1        0.1996
     24 O         135.5740  140.6601  156.7729 O.2     1  UNL1       -0.1544
     25 O         137.5600  141.6293  154.7442 O.2     1  UNL1       -0.1544
     26 C         140.5100  137.4323  163.8024 C.3     1  UNL1        0.1200
     27 C         139.0307  137.6784  163.8328 C.3     1  UNL1        0.2226
     28 O         138.4401  138.5704  164.8843 O.3     1  UNL1       -0.4740
     29 C         138.4968  140.0605  164.7220 C.ar    1  UNL1        0.1387
     30 C         137.6923  140.7289  163.6467 C.ar    1  UNL1        0.0382
     31 C         137.7490  142.2190  163.4844 C.ar    1  UNL1        0.0190
     32 C         138.6101  143.0407  164.3974 C.ar    1  UNL1        0.0646
     33 C         139.4145  142.3723  165.4726 C.ar    1  UNL1        0.0190
     34 C         139.3578  140.8821  165.6349 C.ar    1  UNL1        0.0382
     35 N         138.6667  144.5308  164.2350 N.pl3   1  UNL1       -0.2187
     36 H         138.2827  145.1163  164.9272 H       1  UNL1        0.1734
     37 S         139.3081  145.1289  163.0183 S.O2    1  UNL1        0.0558
     38 C         139.9497  145.7270  161.8014 C.3     1  UNL1        0.1996
     39 O         138.0105  145.0094  162.2754 O.2     1  UNL1       -0.1544
     40 O         140.6058  145.2485  163.7611 O.2     1  UNL1       -0.1544
     41 C         143.8029  143.4268  161.3045 C.3     1  UNL1        0.1113
     42 C         142.8871  137.8856  157.7646 C.3     1  UNL1        0.0101
     43 C         142.7580  139.3576  158.0221 C.3     1  UNL1        0.0510
     44 C         143.5042  139.0423  159.2846 C.3     1  UNL1        0.0101
     45 C         142.0389  139.3651  156.7058 C.2     1  UNL1        0.0261
     46 C         141.7102  138.2696  155.7353 C.2     1  UNL1       -0.0072
     47 C         142.1277  136.8588  156.0273 C.3     1  UNL1        0.0379
     48 C         141.7991  135.7633  155.0568 C.3     1  UNL1        0.1139
     49 C         142.2166  134.3525  155.3488 C.2     1  UNL1        0.1849
     50 N         141.8880  133.2569  154.3784 N.2     1  UNL1       -0.1767
     51 C         141.1419  133.5722  153.1159 C.3     1  UNL1        0.3241
     52 C         140.7244  134.9831  152.8239 C.3     1  UNL1        0.1152
     53 C         141.0530  136.0786  153.7944 C.3     1  UNL1        0.1325
     54 O         140.6355  137.4894  153.5024 O.3     1  UNL1       -0.3538
     55 C         140.9641  138.5849  154.4728 C.3     1  UNL1        0.1360
     56 C         140.5466  139.9957  154.1808 C.3     1  UNL1        0.0556
     57 C         140.8752  141.0913  155.1513 C.3     1  UNL1        0.0981
     58 N         141.6214  140.7760  156.4138 N.pl3   1  UNL1       -0.2907
     59 C         142.0825  141.6404  157.5497 C.ar    1  UNL1        0.0476
     60 C         141.9534  143.1124  157.8072 C.ar    1  UNL1        0.0142
     61 C         142.5269  143.7079  159.0588 C.ar    1  UNL1       -0.0025
     62 C         143.2294  142.8312  160.0529 C.ar    1  UNL1       -0.0133
     63 C         143.3584  141.3593  159.7953 C.ar    1  UNL1       -0.0065
     64 C         142.7850  140.7638  158.5437 C.ar    1  UNL1       -0.0045
     65 C         142.4254  131.9706  154.9320 C.ar    1  UNL1        0.2221
     66 C         142.3984  130.5644  154.4105 C.ar    1  UNL1        0.0702
     67 C         143.0322  129.4589  155.2016 C.ar    1  UNL1        0.0234
     68 C         143.6930  129.7594  156.5143 C.ar    1  UNL1        0.0934
     69 C         143.7199  131.1655  157.0358 C.ar    1  UNL1        0.0194
     70 C         143.0861  132.2711  156.2447 C.ar    1  UNL1        0.0511
     71 C         142.9571  133.7432  156.5023 C.3     1  UNL1        0.0981
     72 C         143.7032  133.4279  157.7647 C.3     1  UNL1        0.0148
     73 C         142.9841  135.1494  157.0238 C.3     1  UNL1        0.0148
     74 S         144.3268  128.6537  157.3054 S.3     1  UNL1       -0.0500
     75 O         143.6039  129.1187  158.5346 O.2     1  UNL1       -0.1802
     76 O         145.0497  128.1886  156.0762 O.2     1  UNL1       -0.1802
     77 O         144.9606  127.5480  158.0965 O.co2   1  UNL1       -0.7201
@<TRIPOS>UNITY_ATOM_ATTR
50 1
charge 1
77 1
charge -1
@<TRIPOS>BOND
     1    42    43    1
     2    43    44    1
     3    43    45    1
     4    45    46    2
     5    46    47    1
     6    47    48    1
     7    48    49    1
     8    49    50    2
     9    50    51    1
    10    51    52    1
    11    52    53    1
    12    53    54    1
    13    54    55    1
    14    55    56    1
    15    56    57    1
    16    57    58    1
    17    58    59    1
    18    59    60   ar
    19    60    61   ar
    20    61    62   ar
    21    62    41    1
    22    41     1    1
    23     1     2    2
    24     1     3   am
    25     3     5    1
    26     5     6    1
    27     6     7    1
    28     7     8    1
    29     8     9    1
    30     9    10    1
    31    10    11    1
    32    11    26    1
    33    26    27    1
    34    27    28    1
    35    28    29    1
    36    29    30   ar
    37    30    31   ar
    38    31    32   ar
    39    32    35    1
    40    35    37    1
    41    37    38    1
    42    37    39    2
    43    37    40    2
    44    32    33   ar
    45    33    34   ar
    46    11    12    1
    47    12    13    1
    48    13    14    1
    49    14    15   ar
    50    15    16   ar
    51    16    17   ar
    52    17    20    1
    53    20    22    1
    54    22    23    1
    55    22    24    2
    56    22    25    2
    57    17    18   ar
    58    18    19   ar
    59    62    63   ar
    60    63    64   ar
    61    50    65    1
    62    65    66   ar
    63    66    67   ar
    64    67    68   ar
    65    68    74    1
    66    74    75    2
    67    74    76    2
    68    74    77    1
    69    68    69   ar
    70    69    70   ar
    71    70    71    1
    72    71    72    1
    73    71    73    1
    74    64    43    1
    75    70    65   ar
    76    58    45    1
    77    64    59   ar
    78    55    46    1
    79    34    29   ar
    80    19    14   ar
    81    53    48    1
    82    71    49    1
    83     3     4    1
    84    35    36    1
    85    20    21    1
@<TRIPOS>MOLECULE
*****
 77 85 0 0 0
SMALL
GASTEIGER

@<TRIPOS>ATOM
      1 C         137.9347  137.5091  154.3314 C.2     1  UNL1        0.2269
      2 O         136.5852  137.6655  154.9674 O.2     1  UNL1       -0.2747
      3 N         138.1290  137.8646  152.8872 N.am    1  UNL1       -0.3041
      4 H         139.0147  137.7619  152.4698 H       1  UNL1        0.1494
      5 C         136.9737  138.3765  152.0788 C.3     1  UNL1        0.0894
      6 C         136.5630  139.8152  152.1853 C.3     1  UNL1        0.0212
      7 C         137.6038  140.8814  152.3586 C.3     1  UNL1        0.0018
      8 C         137.1898  142.2929  152.6519 C.3     1  UNL1        0.0015
      9 C         136.0377  142.5602  153.5747 C.3     1  UNL1        0.0173
     10 C         136.2694  142.6632  155.0531 C.3     1  UNL1        0.0722
     11 N         136.5503  141.4278  155.8561 N.3     1  UNL1       -0.2693
     12 C         137.9660  140.9897  156.0878 C.3     1  UNL1        0.0769
     13 C         139.0305  142.0092  156.3667 C.3     1  UNL1        0.0437
     14 C         139.2818  142.4653  157.7734 C.ar    1  UNL1       -0.0207
     15 C         140.3835  143.4423  158.0595 C.ar    1  UNL1       -0.0029
     16 C         140.6348  143.8984  159.4662 C.ar    1  UNL1        0.0155
     17 C         139.7846  143.3776  160.5867 C.ar    1  UNL1        0.0644
     18 C         138.6829  142.4006  160.3007 C.ar    1  UNL1        0.0155
     19 C         138.4316  141.9444  158.8940 C.ar    1  UNL1       -0.0029
     20 N         140.0360  143.8337  161.9934 N.pl3   1  UNL1       -0.2187
     21 H         140.9589  143.9529  162.3147 H       1  UNL1        0.1734
     22 S         138.8812  144.1083  162.9105 S.O2    1  UNL1        0.0558
     23 C         137.7264  144.3828  163.8275 C.3     1  UNL1        0.1996
     24 O         138.5171  145.3113  162.0919 O.2     1  UNL1       -0.1544
     25 O         139.2452  142.9052  163.7290 O.2     1  UNL1       -0.1544
     26 C         135.4154  140.6306  156.4275 C.3     1  UNL1        0.1200
     27 C         134.2470  140.2623  155.5619 C.3     1  UNL1        0.2226
     28 O         133.0010  141.0970  155.5890 O.3     1  UNL1       -0.4740
     29 C         131.7475  140.5534  156.2082 C.ar    1  UNL1        0.1387
     30 C         131.8342  139.5536  157.3230 C.ar    1  UNL1        0.0382
     31 C         130.5807  139.0101  157.9421 C.ar    1  UNL1        0.0190
     32 C         129.2405  139.4664  157.4464 C.ar    1  UNL1        0.0646
     33 C         129.1538  140.4661  156.3316 C.ar    1  UNL1        0.0190
     34 C         130.4073  141.0097  155.7124 C.ar    1  UNL1        0.0382
     35 N         127.9870  138.9227  158.0655 N.pl3   1  UNL1       -0.2187
     36 H         127.2910  138.5215  157.4966 H       1  UNL1        0.1734
     37 S         127.7941  138.9904  159.5515 S.O2    1  UNL1        0.0558
     38 C         127.6012  139.0581  161.0375 C.3     1  UNL1        0.1996
     39 O         128.0216  137.5109  159.6484 O.2     1  UNL1       -0.1544
     40 O         127.5666  140.4699  159.4546 O.2     1  UNL1       -0.1544
     41 C         139.0899  136.9973  155.1398 C.3     1  UNL1        0.1113
     42 C         141.1682  139.7364  160.8190 C.3     1  UNL1        0.0101
     43 C         141.1890  139.5343  159.3328 C.3     1  UNL1        0.0510
     44 C         140.0791  138.5634  159.6077 C.3     1  UNL1        0.0101
     45 C         142.2944  140.5475  159.3687 C.2     1  UNL1        0.0261
     46 C         142.9324  141.2974  160.5005 C.2     1  UNL1       -0.0072
     47 C         142.4605  141.0763  161.9070 C.3     1  UNL1        0.0379
     48 C         143.0983  141.8261  163.0387 C.3     1  UNL1        0.1139
     49 C         142.6264  141.6050  164.4453 C.2     1  UNL1        0.1849
     50 N         143.2643  142.3548  165.5770 N.2     1  UNL1       -0.1767
     51 C         144.3741  143.3257  165.3022 C.3     1  UNL1        0.3241
     52 C         144.8461  143.5468  163.8956 C.3     1  UNL1        0.1152
     53 C         144.2082  142.7970  162.7639 C.3     1  UNL1        0.1325
     54 O         144.6801  143.0181  161.3573 O.3     1  UNL1       -0.3538
     55 C         144.0422  142.2683  160.2257 C.3     1  UNL1        0.1360
     56 C         144.5142  142.4894  158.8191 C.3     1  UNL1        0.0556
     57 C         143.8762  141.7395  157.6873 C.3     1  UNL1        0.0981
     58 N         142.7664  140.7686  157.9621 N.pl3   1  UNL1       -0.2907
     59 C         141.9526  139.8921  157.0570 C.ar    1  UNL1        0.0476
     60 C         141.9733  139.6900  155.5708 C.ar    1  UNL1        0.0142
     61 C         141.0191  138.7251  154.9317 C.ar    1  UNL1       -0.0025
     62 C         140.0442  137.9622  155.7789 C.ar    1  UNL1       -0.0133
     63 C         140.0235  138.1643  157.2650 C.ar    1  UNL1       -0.0065
     64 C         140.9777  139.1293  157.9041 C.ar    1  UNL1       -0.0045
     65 C         142.5929  141.9320  166.8500 C.ar    1  UNL1        0.2221
     66 C         142.8042  142.3371  168.2787 C.ar    1  UNL1        0.0702
     67 C         141.9626  141.7310  169.3624 C.ar    1  UNL1        0.0234
     68 C         140.9098  140.7198  169.0174 C.ar    1  UNL1        0.0934
     69 C         140.6984  140.3147  167.5887 C.ar    1  UNL1        0.0194
     70 C         141.5400  140.9208  166.5050 C.ar    1  UNL1        0.0511
     71 C         141.5607  140.7187  165.0188 C.3     1  UNL1        0.0981
     72 C         140.4509  139.7478  165.2936 C.3     1  UNL1        0.0148
     73 C         141.3494  140.3137  163.5900 C.3     1  UNL1        0.0148
     74 S         140.0682  140.1137  170.1011 S.3     1  UNL1       -0.0500
     75 O         141.1602  140.3754  171.0955 O.2     1  UNL1       -0.1802
     76 O         138.9761  139.8521  169.1067 O.2     1  UNL1       -0.1802
     77 O         139.2266  139.5077  171.1848 O.co2   1  UNL1       -0.7201
@<TRIPOS>UNITY_ATOM_ATTR
50 1
charge 1
77 1
charge -1
@<TRIPOS>BOND
     1    42    43    1
     2    43    44    1
     3    43    45    1
     4    45    46    2
     5    46    47    1
     6    47    48    1
     7    48    49    1
     8    49    50    2
     9    50    51    1
    10    51    52    1
    11    52    53    1
    12    53    54    1
    13    54    55    1
    14    55    56    1
    15    56    57    1
    16    57    58    1
    17    58    59    1
    18    59    60   ar
    19    60    61   ar
    20    61    62   ar
    21    62    41    1
    22    41     1    1
    23     1     2    2
    24     1     3   am
    25     3     5    1
    26     5     6    1
    27     6     7    1
    28     7     8    1
    29     8     9    1
    30     9    10    1
    31    10    11    1
    32    11    26    1
    33    26    27    1
    34    27    28    1
    35    28    29    1
    36    29    30   ar
    37    30    31   ar
    38    31    32   ar
    39    32    35    1
    40    35    37    1
    41    37    38    1
    42    37    39    2
    43    37    40    2
    44    32    33   ar
    45    33    34   ar
    46    11    12    1
    47    12    13    1
    48    13    14    1
    49    14    15   ar
    50    15    16   ar
    51    16    17   ar
    52    17    20    1
    53    20    22    1
    54    22    23    1
    55    22    24    2
    56    22    25    2
    57    17    18   ar
    58    18    19   ar
    59    62    63   ar
    60    63    64   ar
    61    50    65    1
    62    65    66   ar
    63    66    67   ar
    64    67    68   ar
    65    68    74    1
    66    74    75    2
    67    74    76    2
    68    74    77    1
    69    68    69   ar
    70    69    70   ar
    71    70    71    1
    72    71    72    1
    73    71    73    1
    74    64    43    1
    75    70    65   ar
    76    58    45    1
    77    64    59   ar
    78    55    46    1
    79    34    29   ar
    80    19    14   ar
    81    53    48    1
    82    71    49    1
    83     3     4    1
    84    35    36    1
    85    20    21    1
@<TRIPOS>MOLECULE
*****
 77 85 0 0 0
SMALL
GASTEIGER

@<TRIPOS>ATOM
      1 C         143.8827  141.8178  165.6886 C.2     1  UNL1        0.2269
      2 O         144.0390  143.2843  165.9626 O.2     1  UNL1       -0.2747
      3 N         142.8373  141.0259  166.4165 N.am    1  UNL1       -0.3041
      4 H         142.7348  140.0634  166.2366 H       1  UNL1        0.1494
      5 C         141.9480  141.7005  167.4186 C.3     1  UNL1        0.0894
      6 C         140.5296  141.2437  167.5900 C.3     1  UNL1        0.0212
      7 C         140.1512  139.8310  167.2567 C.3     1  UNL1        0.0018
      8 C         138.7053  139.4497  167.1393 C.3     1  UNL1        0.0015
      9 C         138.1240  139.1167  165.7971 C.3     1  UNL1        0.0173
     10 C         138.9064  138.2815  164.8274 C.3     1  UNL1        0.0722
     11 N         139.2871  138.8441  163.4900 N.3     1  UNL1       -0.2693
     12 C         140.5806  139.5865  163.3294 C.3     1  UNL1        0.0769
     13 C         140.7383  140.9553  163.9223 C.3     1  UNL1        0.0437
     14 C         140.9372  142.1422  163.0268 C.ar    1  UNL1       -0.0207
     15 C         140.7776  141.9968  161.5424 C.ar    1  UNL1       -0.0029
     16 C         140.9766  143.1836  160.6470 C.ar    1  UNL1        0.0155
     17 C         141.3351  144.5157  161.2358 C.ar    1  UNL1        0.0644
     18 C         141.4947  144.6612  162.7202 C.ar    1  UNL1        0.0155
     19 C         141.2957  143.4744  163.6157 C.ar    1  UNL1       -0.0029
     20 N         141.5340  145.7026  160.3403 N.pl3   1  UNL1       -0.2187
     21 H         142.0814  146.4623  160.6443 H       1  UNL1        0.1734
     22 S         140.8988  145.7319  158.9818 S.O2    1  UNL1        0.0558
     23 C         140.2636  145.7612  157.6233 C.3     1  UNL1        0.1996
     24 O         142.2466  145.5548  158.3478 O.2     1  UNL1       -0.1544
     25 O         139.5510  145.9089  159.6158 O.2     1  UNL1       -0.1544
     26 C         138.3744  138.6642  162.3133 C.3     1  UNL1        0.1200
     27 C         138.8888  138.0297  161.0553 C.3     1  UNL1        0.2226
     28 O         140.0324  138.6553  160.3131 O.3     1  UNL1       -0.4740
     29 C         139.8661  139.0534  158.8765 C.ar    1  UNL1        0.1387
     30 C         139.9372  140.5000  158.4861 C.ar    1  UNL1        0.0382
     31 C         139.7708  140.8981  157.0495 C.ar    1  UNL1        0.0190
     32 C         139.5334  139.8496  156.0033 C.ar    1  UNL1        0.0646
     33 C         139.4623  138.4031  156.3937 C.ar    1  UNL1        0.0190
     34 C         139.6286  138.0049  157.8304 C.ar    1  UNL1        0.0382
     35 N         139.3670  140.2479  154.5667 N.pl3   1  UNL1       -0.2187
     36 H         140.0421  140.8180  154.1327 H       1  UNL1        0.1734
     37 S         138.1722  139.7776  153.7915 S.O2    1  UNL1        0.0558
     38 C         136.9773  139.3073  153.0163 C.3     1  UNL1        0.1996
     39 O         138.9969  138.6809  153.1856 O.2     1  UNL1       -0.1544
     40 O         137.3474  140.8742  154.3974 O.2     1  UNL1       -0.1544
     41 C         144.7720  141.1432  164.6865 C.3     1  UNL1        0.1113
     42 C         143.3923  138.5394  158.7374 C.3     1  UNL1        0.0101
     43 C         143.7341  139.6625  159.6711 C.3     1  UNL1        0.0510
     44 C         143.7087  138.5895  160.7190 C.3     1  UNL1        0.0101
     45 C         143.6881  140.5006  158.4280 C.2     1  UNL1        0.0261
     46 C         143.4055  140.1568  156.9955 C.2     1  UNL1       -0.0072
     47 C         143.0975  138.7401  156.6110 C.3     1  UNL1        0.0379
     48 C         142.8149  138.3962  155.1785 C.3     1  UNL1        0.1139
     49 C         142.5069  136.9794  154.7940 C.2     1  UNL1        0.1849
     50 N         142.2243  136.6355  153.3616 N.2     1  UNL1       -0.1767
     51 C         142.2497  137.7084  152.3137 C.3     1  UNL1        0.3241
     52 C         142.5577  139.1252  152.6982 C.3     1  UNL1        0.1152
     53 C         142.8403  139.4691  154.1306 C.3     1  UNL1        0.1325
     54 O         143.1483  140.8859  154.5151 O.3     1  UNL1       -0.3538
     55 C         143.4309  141.2297  155.9475 C.3     1  UNL1        0.1360
     56 C         143.7389  142.6465  156.3321 C.3     1  UNL1        0.0556
     57 C         144.0215  142.9903  157.7646 C.3     1  UNL1        0.0981
     58 N         143.9961  141.9174  158.8125 N.pl3   1  UNL1       -0.2907
     59 C         144.2325  141.9549  160.2933 C.ar    1  UNL1        0.0476
     60 C         144.5742  143.0780  161.2270 C.ar    1  UNL1        0.0142
     61 C         144.7541  142.8075  162.6914 C.ar    1  UNL1       -0.0025
     62 C         144.5922  141.4138  163.2220 C.ar    1  UNL1       -0.0133
     63 C         144.2504  140.2908  162.2883 C.ar    1  UNL1       -0.0065
     64 C         144.0705  140.5613  160.8239 C.ar    1  UNL1       -0.0045
     65 C         141.9539  135.1622  153.2832 C.ar    1  UNL1        0.2221
     66 C         141.6174  134.2634  152.1304 C.ar    1  UNL1        0.0702
     67 C         141.3964  132.7979  152.3616 C.ar    1  UNL1        0.0234
     68 C         141.5119  132.2312  153.7456 C.ar    1  UNL1        0.0934
     69 C         141.8483  133.1300  154.8984 C.ar    1  UNL1        0.0194
     70 C         142.0693  134.5954  154.6672 C.ar    1  UNL1        0.0511
     71 C         142.4111  135.7185  155.6009 C.3     1  UNL1        0.0981
     72 C         142.3857  134.6456  156.6488 C.3     1  UNL1        0.0148
     73 C         142.7476  136.6174  156.7537 C.3     1  UNL1        0.0148
     74 S         141.2909  130.7656  153.9767 S.3     1  UNL1       -0.0500
     75 O         141.8350  130.9030  155.3678 O.2     1  UNL1       -0.1802
     76 O         140.7468  130.6283  152.5857 O.2     1  UNL1       -0.1802
     77 O         141.0699  129.3002  154.2078 O.co2   1  UNL1       -0.7201
@<TRIPOS>UNITY_ATOM_ATTR
50 1
charge 1
77 1
charge -1
@<TRIPOS>BOND
     1    42    43    1
     2    43    44    1
     3    43    45    1
     4    45    46    2
     5    46    47    1
     6    47    48    1
     7    48    49    1
     8    49    50    2
     9    50    51    1
    10    51    52    1
    11    52    53    1
    12    53    54    1
    13    54    55    1
    14    55    56    1
    15    56    57    1
    16    57    58    1
    17    58    59    1
    18    59    60   ar
    19    60    61   ar
    20    61    62   ar
    21    62    41    1
    22    41     1    1
    23     1     2    2
    24     1     3   am
    25     3     5    1
    26     5     6    1
    27     6     7    1
    28     7     8    1
    29     8     9    1
    30     9    10    1
    31    10    11    1
    32    11    26    1
    33    26    27    1
    34    27    28    1
    35    28    29    1
    36    29    30   ar
    37    30    31   ar
    38    31    32   ar
    39    32    35    1
    40    35    37    1
    41    37    38    1
    42    37    39    2
    43    37    40    2
    44    32    33   ar
    45    33    34   ar
    46    11    12    1
    47    12    13    1
    48    13    14    1
    49    14    15   ar
    50    15    16   ar
    51    16    17   ar
    52    17    20    1
    53    20    22    1
    54    22    23    1
    55    22    24    2
    56    22    25    2
    57    17    18   ar
    58    18    19   ar
    59    62    63   ar
    60    63    64   ar
    61    50    65    1
    62    65    66   ar
    63    66    67   ar
    64    67    68   ar
    65    68    74    1
    66    74    75    2
    67    74    76    2
    68    74    77    1
    69    68    69   ar
    70    69    70   ar
    71    70    71    1
    72    71    72    1
    73    71    73    1
    74    64    43    1
    75    70    65   ar
    76    58    45    1
    77    64    59   ar
    78    55    46    1
    79    34    29   ar
    80    19    14   ar
    81    53    48    1
    82    71    49    1
    83     3     4    1
    84    35    36    1
    85    20    21    1
@<TRIPOS>MOLECULE
*****
 77 85 0 0 0
SMALL
GASTEIGER

@<TRIPOS>ATOM
      1 C         142.4721  138.1836  163.0318 C.2     1  UNL1        0.2269
      2 O         142.5638  139.4569  163.8195 O.2     1  UNL1       -0.2747
      3 N         141.5358  137.0965  163.4696 N.am    1  UNL1       -0.3041
      4 H         141.4757  136.2609  162.9526 H       1  UNL1        0.1494
      5 C         140.6912  137.2828  164.6953 C.3     1  UNL1        0.0894
      6 C         139.2344  137.6131  164.5590 C.3     1  UNL1        0.0212
      7 C         138.7001  138.1236  163.2537 C.3     1  UNL1        0.0018
      8 C         138.7806  139.5862  162.9309 C.3     1  UNL1        0.0015
      9 C         137.5692  140.3096  162.4216 C.3     1  UNL1        0.0173
     10 C         137.3478  141.7484  162.7833 C.3     1  UNL1        0.0722
     11 N         137.7993  142.8339  161.8517 N.3     1  UNL1       -0.2693
     12 C         137.9402  142.5530  160.3851 C.3     1  UNL1        0.0769
     13 C         139.0493  143.1913  159.6024 C.3     1  UNL1        0.0437
     14 C         140.4734  143.0160  160.0400 C.ar    1  UNL1       -0.0207
     15 C         140.7833  142.2672  161.3022 C.ar    1  UNL1       -0.0029
     16 C         142.2073  142.0919  161.7398 C.ar    1  UNL1        0.0155
     17 C         143.3213  142.6652  160.9152 C.ar    1  UNL1        0.0644
     18 C         143.0114  143.4140  159.6529 C.ar    1  UNL1        0.0155
     19 C         141.5875  143.5894  159.2153 C.ar    1  UNL1       -0.0029
     20 N         144.7453  142.4899  161.3528 N.pl3   1  UNL1       -0.2187
     21 H         145.4736  142.5462  160.6927 H       1  UNL1        0.1734
     22 S         145.0597  142.2288  162.7960 S.O2    1  UNL1        0.0558
     23 C         145.3740  141.9676  164.2393 C.3     1  UNL1        0.1996
     24 O         144.7682  143.6642  163.1192 O.2     1  UNL1       -0.1544
     25 O         145.3511  140.7933  162.4728 O.2     1  UNL1       -0.1544
     26 C         138.1100  144.2004  162.3869 C.3     1  UNL1        0.1200
     27 C         138.6834  144.3538  163.7645 C.3     1  UNL1        0.2226
     28 O         140.1338  144.0606  164.0101 O.3     1  UNL1       -0.4740
     29 C         140.5284  143.0018  164.9966 C.ar    1  UNL1        0.1387
     30 C         139.4935  142.0644  165.5448 C.ar    1  UNL1        0.0382
     31 C         139.8880  141.0056  166.5312 C.ar    1  UNL1        0.0190
     32 C         141.3175  140.8840  166.9695 C.ar    1  UNL1        0.0646
     33 C         142.3523  141.8213  166.4213 C.ar    1  UNL1        0.0190
     34 C         141.9578  142.8802  165.4348 C.ar    1  UNL1        0.0382
     35 N         141.7120  139.8251  167.9559 N.pl3   1  UNL1       -0.2187
     36 H         141.9593  138.9259  167.6403 H       1  UNL1        0.1734
     37 S         141.7296  140.1360  169.4231 S.O2    1  UNL1        0.0558
     38 C         141.7474  140.4469  170.8905 C.3     1  UNL1        0.1996
     39 O         140.2998  139.6963  169.5336 O.2     1  UNL1       -0.1544
     40 O         143.1595  140.5757  169.3128 O.2     1  UNL1       -0.1544
     41 C         143.3166  137.9975  161.8062 C.3     1  UNL1        0.1113
     42 C         138.4130  139.9854  157.7966 C.3     1  UNL1        0.0101
     43 C         139.8503  139.8487  158.2033 C.3     1  UNL1        0.0510
     44 C         139.2826  139.1228  159.3868 C.3     1  UNL1        0.0101
     45 C         140.1174  140.6032  156.9347 C.2     1  UNL1        0.0261
     46 C         139.2012  141.1514  155.8810 C.2     1  UNL1       -0.0072
     47 C         137.7176  140.9736  156.0108 C.3     1  UNL1        0.0379
     48 C         136.8014  141.5217  154.9572 C.3     1  UNL1        0.1139
     49 C         135.3176  141.3439  155.0870 C.2     1  UNL1        0.1849
     50 N         134.4015  141.8920  154.0334 N.2     1  UNL1       -0.1767
     51 C         134.9691  142.6179  152.8498 C.3     1  UNL1        0.3241
     52 C         136.4529  142.7957  152.7200 C.3     1  UNL1        0.1152
     53 C         137.3690  142.2476  153.7736 C.3     1  UNL1        0.1325
     54 O         138.8528  142.4254  153.6437 O.3     1  UNL1       -0.3538
     55 C         139.7689  141.8773  154.6974 C.3     1  UNL1        0.1360
     56 C         141.2526  142.0551  154.5675 C.3     1  UNL1        0.0556
     57 C         142.1688  141.5070  155.6213 C.3     1  UNL1        0.0981
     58 N         141.6012  140.7810  156.8048 N.pl3   1  UNL1       -0.2907
     59 C         142.2510  140.1364  157.9931 C.ar    1  UNL1        0.0476
     60 C         143.6884  139.9997  158.3998 C.ar    1  UNL1        0.0142
     61 C         144.0436  139.2867  159.6709 C.ar    1  UNL1       -0.0025
     62 C         142.9614  138.7105  160.5352 C.ar    1  UNL1       -0.0133
     63 C         141.5242  138.8472  160.1284 C.ar    1  UNL1       -0.0065
     64 C         141.1689  139.5602  158.8574 C.ar    1  UNL1       -0.0045
     65 C         132.9920  141.5651  154.4289 C.ar    1  UNL1        0.2221
     66 C         131.6734  141.8536  153.7748 C.ar    1  UNL1        0.0702
     67 C         130.3998  141.3920  154.4188 C.ar    1  UNL1        0.0234
     68 C         130.4448  140.6419  155.7170 C.ar    1  UNL1        0.0934
     69 C         131.7634  140.3533  156.3711 C.ar    1  UNL1        0.0194
     70 C         133.0370  140.8150  155.7271 C.ar    1  UNL1        0.0511
     71 C         134.4743  140.6782  156.1338 C.3     1  UNL1        0.0981
     72 C         133.9067  139.9523  157.3174 C.3     1  UNL1        0.0148
     73 C         135.7930  140.3897  156.7880 C.3     1  UNL1        0.0148
     74 S         129.1711  140.1802  156.3610 S.3     1  UNL1       -0.0500
     75 O         129.9528  139.6469  157.5248 O.2     1  UNL1       -0.1802
     76 O         128.3894  140.7136  155.1972 O.2     1  UNL1       -0.1802
     77 O         127.8975  139.7186  157.0049 O.co2   1  UNL1       -0.7201
@<TRIPOS>UNITY_ATOM_ATTR
50 1
charge 1
77 1
charge -1
@<TRIPOS>BOND
     1    42    43    1
     2    43    44    1
     3    43    45    1
     4    45    46    2
     5    46    47    1
     6    47    48    1
     7    48    49    1
     8    49    50    2
     9    50    51    1
    10    51    52    1
    11    52    53    1
    12    53    54    1
    13    54    55    1
    14    55    56    1
    15    56    57    1
    16    57    58    1
    17    58    59    1
    18    59    60   ar
    19    60    61   ar
    20    61    62   ar
    21    62    41    1
    22    41     1    1
    23     1     2    2
    24     1     3   am
    25     3     5    1
    26     5     6    1
    27     6     7    1
    28     7     8    1
    29     8     9    1
    30     9    10    1
    31    10    11    1
    32    11    26    1
    33    26    27    1
    34    27    28    1
    35    28    29    1
    36    29    30   ar
    37    30    31   ar
    38    31    32   ar
    39    32    35    1
    40    35    37    1
    41    37    38    1
    42    37    39    2
    43    37    40    2
    44    32    33   ar
    45    33    34   ar
    46    11    12    1
    47    12    13    1
    48    13    14    1
    49    14    15   ar
    50    15    16   ar
    51    16    17   ar
    52    17    20    1
    53    20    22    1
    54    22    23    1
    55    22    24    2
    56    22    25    2
    57    17    18   ar
    58    18    19   ar
    59    62    63   ar
    60    63    64   ar
    61    50    65    1
    62    65    66   ar
    63    66    67   ar
    64    67    68   ar
    65    68    74    1
    66    74    75    2
    67    74    76    2
    68    74    77    1
    69    68    69   ar
    70    69    70   ar
    71    70    71    1
    72    71    72    1
    73    71    73    1
    74    64    43    1
    75    70    65   ar
    76    58    45    1
    77    64    59   ar
    78    55    46    1
    79    34    29   ar
    80    19    14   ar
    81    53    48    1
    82    71    49    1
    83     3     4    1
    84    35    36    1
    85    20    21    1
@<TRIPOS>MOLECULE
*****
 77 85 0 0 0
SMALL
GASTEIGER

@<TRIPOS>ATOM
      1 C         141.6199  143.9914  160.0727 C.2     1  UNL1        0.2269
      2 O         140.3235  143.2372  160.0459 O.2     1  UNL1       -0.2747
      3 N         141.8196  145.1051  161.0574 N.am    1  UNL1       -0.3041
      4 H         142.6704  145.6001  161.0750 H       1  UNL1        0.1494
      5 C         140.7227  145.4648  162.0154 C.3     1  UNL1        0.0894
      6 C         140.8841  145.1840  163.4800 C.3     1  UNL1        0.0212
      7 C         139.7058  144.7337  164.2916 C.3     1  UNL1        0.0018
      8 C         138.3769  144.5198  163.6297 C.3     1  UNL1        0.0015
      9 C         137.7415  143.1610  163.6449 C.3     1  UNL1        0.0173
     10 C         137.7286  142.3251  162.3995 C.3     1  UNL1        0.0722
     11 N         137.7761  140.8292  162.4997 N.3     1  UNL1       -0.2693
     12 C         137.9138  140.1714  163.8407 C.3     1  UNL1        0.0769
     13 C         139.2312  139.5879  164.2581 C.3     1  UNL1        0.0437
     14 C         140.0726  140.2915  165.2814 C.ar    1  UNL1       -0.0207
     15 C         140.8981  141.4796  164.8851 C.ar    1  UNL1       -0.0029
     16 C         141.7395  142.1831  165.9083 C.ar    1  UNL1        0.0155
     17 C         141.7554  141.6987  167.3278 C.ar    1  UNL1        0.0644
     18 C         140.9299  140.5106  167.7241 C.ar    1  UNL1        0.0155
     19 C         140.0885  139.8070  166.7009 C.ar    1  UNL1       -0.0029
     20 N         142.5968  142.4023  168.3510 N.pl3   1  UNL1       -0.2187
     21 H         143.3634  142.9501  168.0656 H       1  UNL1        0.1734
     22 S         142.2702  142.2712  169.8091 S.O2    1  UNL1        0.0558
     23 C         141.9435  142.1401  171.2673 C.3     1  UNL1        0.1996
     24 O         143.3696  141.2628  169.9648 O.2     1  UNL1       -0.1544
     25 O         141.1707  143.2796  169.6535 O.2     1  UNL1       -0.1544
     26 C         137.6860  139.9912  161.2589 C.3     1  UNL1        0.1200
     27 C         138.2552  138.6034  161.2482 C.3     1  UNL1        0.2226
     28 O         139.5022  138.3102  160.4678 O.3     1  UNL1       -0.4740
     29 C         140.8418  138.6944  161.0225 C.ar    1  UNL1        0.1387
     30 C         141.2362  140.1397  161.0969 C.ar    1  UNL1        0.0382
     31 C         142.5759  140.5239  161.6516 C.ar    1  UNL1        0.0190
     32 C         143.5211  139.4628  162.1319 C.ar    1  UNL1        0.0646
     33 C         143.1267  138.0176  162.0575 C.ar    1  UNL1        0.0190
     34 C         141.7870  137.6333  161.5028 C.ar    1  UNL1        0.0382
     35 N         144.8608  139.8471  162.6866 N.pl3   1  UNL1       -0.2187
     36 H         145.6489  139.2864  162.5028 H       1  UNL1        0.1734
     37 S         144.9997  141.0855  163.5213 S.O2    1  UNL1        0.0558
     38 C         145.1387  142.3241  164.3560 C.3     1  UNL1        0.1996
     39 O         145.5957  141.8083  162.3498 O.2     1  UNL1       -0.1544
     40 O         144.4037  140.3629  164.6929 O.2     1  UNL1       -0.1544
     41 C         142.7167  143.6317  159.1148 C.3     1  UNL1        0.1113
     42 C         142.8145  137.4836  156.6114 C.3     1  UNL1        0.0101
     43 C         142.5475  138.9585  156.5542 C.3     1  UNL1        0.0510
     44 C         143.0699  138.9481  157.9602 C.3     1  UNL1        0.0101
     45 C         142.0809  138.6604  155.1601 C.2     1  UNL1        0.0261
     46 C         142.0047  137.3821  154.3789 C.2     1  UNL1       -0.0072
     47 C         142.4509  136.0936  155.0038 C.3     1  UNL1        0.0379
     48 C         142.3747  134.8153  154.2226 C.3     1  UNL1        0.1139
     49 C         142.8209  133.5267  154.8475 C.2     1  UNL1        0.1849
     50 N         142.7447  132.2485  154.0664 N.2     1  UNL1       -0.1767
     51 C         142.2223  132.2588  152.6603 C.3     1  UNL1        0.3241
     52 C         141.7761  133.5474  152.0354 C.3     1  UNL1        0.1152
     53 C         141.8523  134.8256  152.8166 C.3     1  UNL1        0.1325
     54 O         141.4061  136.1142  152.1917 O.3     1  UNL1       -0.3538
     55 C         141.4823  137.3924  152.9728 C.3     1  UNL1        0.1360
     56 C         141.0361  138.6810  152.3479 C.3     1  UNL1        0.0556
     57 C         141.1124  139.9593  153.1292 C.3     1  UNL1        0.0981
     58 N         141.6347  139.9490  154.5352 N.pl3   1  UNL1       -0.2907
     59 C         141.8255  141.0434  155.5431 C.ar    1  UNL1        0.0476
     60 C         141.5585  142.5184  155.4858 C.ar    1  UNL1        0.0142
     61 C         141.8555  143.3811  156.6763 C.ar    1  UNL1       -0.0025
     62 C         142.4197  142.7689  157.9242 C.ar    1  UNL1       -0.0133
     63 C         142.6867  141.2940  157.9814 C.ar    1  UNL1       -0.0065
     64 C         142.3896  140.4313  156.7909 C.ar    1  UNL1       -0.0045
     65 C         143.2530  131.1402  154.9402 C.ar    1  UNL1        0.2221
     66 C         143.4108  129.6675  154.7034 C.ar    1  UNL1        0.0702
     67 C         143.9590  128.7881  155.7879 C.ar    1  UNL1        0.0234
     68 C         144.3493  129.3815  157.1091 C.ar    1  UNL1        0.0934
     69 C         144.1915  130.8542  157.3458 C.ar    1  UNL1        0.0194
     70 C         143.6433  131.7336  156.2614 C.ar    1  UNL1        0.0511
     71 C         143.3763  133.2085  156.2041 C.3     1  UNL1        0.0981
     72 C         143.8987  133.1982  157.6101 C.3     1  UNL1        0.0148
     73 C         143.2184  134.6813  156.4408 C.3     1  UNL1        0.0148
     74 S         144.8975  128.5020  158.1936 S.3     1  UNL1       -0.0500
     75 O         145.5336  127.6221  157.1587 O.2     1  UNL1       -0.1802
     76 O         144.2615  129.3819  159.2286 O.2     1  UNL1       -0.1802
     77 O         145.4457  127.6226  159.2781 O.co2   1  UNL1       -0.7201
@<TRIPOS>UNITY_ATOM_ATTR
50 1
charge 1
77 1
charge -1
@<TRIPOS>BOND
     1    42    43    1
     2    43    44    1
     3    43    45    1
     4    45    46    2
     5    46    47    1
     6    47    48    1
     7    48    49    1
     8    49    50    2
     9    50    51    1
    10    51    52    1
    11    52    53    1
    12    53    54    1
    13    54    55    1
    14    55    56    1
    15    56    57    1
    16    57    58    1
    17    58    59    1
    18    59    60   ar
    19    60    61   ar
    20    61    62   ar
    21    62    41    1
    22    41     1    1
    23     1     2    2
    24     1     3   am
    25     3     5    1
    26     5     6    1
    27     6     7    1
    28     7     8    1
    29     8     9    1
    30     9    10    1
    31    10    11    1
    32    11    26    1
    33    26    27    1
    34    27    28    1
    35    28    29    1
    36    29    30   ar
    37    30    31   ar
    38    31    32   ar
    39    32    35    1
    40    35    37    1
    41    37    38    1
    42    37    39    2
    43    37    40    2
    44    32    33   ar
    45    33    34   ar
    46    11    12    1
    47    12    13    1
    48    13    14    1
    49    14    15   ar
    50    15    16   ar
    51    16    17   ar
    52    17    20    1
    53    20    22    1
    54    22    23    1
    55    22    24    2
    56    22    25    2
    57    17    18   ar
    58    18    19   ar
    59    62    63   ar
    60    63    64   ar
    61    50    65    1
    62    65    66   ar
    63    66    67   ar
    64    67    68   ar
    65    68    74    1
    66    74    75    2
    67    74    76    2
    68    74    77    1
    69    68    69   ar
    70    69    70   ar
    71    70    71    1
    72    71    72    1
    73    71    73    1
    74    64    43    1
    75    70    65   ar
    76    58    45    1
    77    64    59   ar
    78    55    46    1
    79    34    29   ar
    80    19    14   ar
    81    53    48    1
    82    71    49    1
    83     3     4    1
    84    35    36    1
    85    20    21    1
@<TRIPOS>MOLECULE
*****
 77 85 0 0 0
SMALL
GASTEIGER

@<TRIPOS>ATOM
      1 C         139.8565  140.4971  169.0370 C.2     1  UNL1        0.2269
      2 O         139.9867  139.6914  170.2956 O.2     1  UNL1       -0.2747
      3 N         140.3488  141.9134  168.9987 N.am    1  UNL1       -0.3041
      4 H         140.2633  142.4422  168.1727 H       1  UNL1        0.1494
      5 C         140.9715  142.5242  170.2192 C.3     1  UNL1        0.0894
      6 C         142.3857  143.0219  170.1703 C.3     1  UNL1        0.0212
      7 C         143.3501  142.4443  169.1772 C.3     1  UNL1        0.0018
      8 C         142.8832  142.0917  167.7961 C.3     1  UNL1        0.0015
      9 C         143.5105  142.7479  166.6020 C.3     1  UNL1        0.0173
     10 C         143.1841  142.2615  165.2211 C.3     1  UNL1        0.0722
     11 N         142.4526  143.1557  164.2644 N.3     1  UNL1       -0.2693
     12 C         142.9866  143.3681  162.8788 C.3     1  UNL1        0.0769
     13 C         142.7120  142.3562  161.8060 C.3     1  UNL1        0.0437
     14 C         143.4742  142.4063  160.5150 C.ar    1  UNL1       -0.0207
     15 C         142.7470  142.2792  159.2092 C.ar    1  UNL1       -0.0029
     16 C         143.5091  142.3293  157.9183 C.ar    1  UNL1        0.0155
     17 C         144.9984  142.5065  157.9330 C.ar    1  UNL1        0.0644
     18 C         145.7258  142.6337  159.2388 C.ar    1  UNL1        0.0155
     19 C         144.9636  142.5835  160.5297 C.ar    1  UNL1       -0.0029
     20 N         145.7606  142.5567  156.6421 N.pl3   1  UNL1       -0.2187
     21 H         146.6011  143.0663  156.5861 H       1  UNL1        0.1734
     22 S         145.2423  141.8303  155.4364 S.O2    1  UNL1        0.0558
     23 C         144.7239  141.1038  154.2308 C.3     1  UNL1        0.1996
     24 O         145.6579  140.5237  156.0449 O.2     1  UNL1       -0.1544
     25 O         144.8266  143.1368  154.8280 O.2     1  UNL1       -0.1544
     26 C         141.1872  143.8376  164.6932 C.3     1  UNL1        0.1200
     27 C         139.8633  143.3523  164.1815 C.3     1  UNL1        0.2226
     28 O         139.0684  144.2015  163.2343 O.3     1  UNL1       -0.4740
     29 C         139.4558  144.2746  161.7871 C.ar    1  UNL1        0.1387
     30 C         140.3313  145.3913  161.3006 C.ar    1  UNL1        0.0382
     31 C         140.7187  145.4644  159.8533 C.ar    1  UNL1        0.0190
     32 C         140.2305  144.4210  158.8926 C.ar    1  UNL1        0.0646
     33 C         139.3550  143.3044  159.3791 C.ar    1  UNL1        0.0190
     34 C         138.9676  143.2312  160.8264 C.ar    1  UNL1        0.0382
     35 N         140.6179  144.4942  157.4453 N.pl3   1  UNL1       -0.2187
     36 H         141.1832  143.7913  157.0509 H       1  UNL1        0.1734
     37 S         140.1442  145.6384  156.5990 S.O2    1  UNL1        0.0558
     38 C         139.6704  146.7826  155.7527 C.3     1  UNL1        0.1996
     39 O         141.4353  146.3593  156.8509 O.2     1  UNL1       -0.1544
     40 O         138.8531  144.9176  156.3471 O.2     1  UNL1       -0.1544
     41 C         139.2338  139.8863  167.8166 C.3     1  UNL1        0.1113
     42 C         139.5075  139.7947  161.1840 C.3     1  UNL1        0.0101
     43 C         140.0725  139.5979  162.5595 C.3     1  UNL1        0.0510
     44 C         138.7209  140.0667  163.0106 C.3     1  UNL1        0.0101
     45 C         141.3059  139.1703  161.8207 C.2     1  UNL1        0.0261
     46 C         141.6127  139.0646  160.3562 C.2     1  UNL1       -0.0072
     47 C         140.5680  139.4276  159.3430 C.3     1  UNL1        0.0379
     48 C         140.8748  139.3219  157.8785 C.3     1  UNL1        0.1139
     49 C         139.8300  139.6849  156.8652 C.2     1  UNL1        0.1849
     50 N         140.1368  139.5792  155.4007 N.2     1  UNL1       -0.1767
     51 C         141.4883  139.1105  154.9495 C.3     1  UNL1        0.3241
     52 C         142.5331  138.7474  155.9628 C.3     1  UNL1        0.1152
     53 C         142.2263  138.8531  157.4273 C.3     1  UNL1        0.1325
     54 O         143.2711  138.4901  158.4406 O.3     1  UNL1       -0.3538
     55 C         142.9642  138.5959  159.9050 C.3     1  UNL1        0.1360
     56 C         144.0090  138.2328  160.9183 C.3     1  UNL1        0.0556
     57 C         143.7022  138.3386  162.3828 C.3     1  UNL1        0.0981
     58 N         142.3506  138.8073  162.8340 N.pl3   1  UNL1       -0.2907
     59 C         141.7629  139.0106  164.1990 C.ar    1  UNL1        0.0476
     60 C         142.3279  138.8138  165.5745 C.ar    1  UNL1        0.0142
     61 C         141.4849  139.1057  166.7804 C.ar    1  UNL1       -0.0025
     62 C         140.0769  139.5944  166.6107 C.ar    1  UNL1       -0.0133
     63 C         139.5119  139.7911  165.2352 C.ar    1  UNL1       -0.0065
     64 C         140.3549  139.4992  164.0293 C.ar    1  UNL1       -0.0045
     65 C         138.9158  140.0032  154.6395 C.ar    1  UNL1        0.2221
     66 C         138.6334  140.1020  153.1697 C.ar    1  UNL1        0.0702
     67 C         137.2896  140.5685  152.6939 C.ar    1  UNL1        0.0234
     68 C         136.2281  140.9363  153.6880 C.ar    1  UNL1        0.0934
     69 C         136.5106  140.8375  155.1578 C.ar    1  UNL1        0.0194
     70 C         137.8544  140.3710  155.6336 C.ar    1  UNL1        0.0511
     71 C         138.4194  140.1743  157.0091 C.3     1  UNL1        0.0981
     72 C         137.0679  140.6430  157.4603 C.3     1  UNL1        0.0148
     73 C         138.7019  140.0755  158.4790 C.3     1  UNL1        0.0148
     74 S         134.8843  141.4028  153.2121 S.3     1  UNL1       -0.0500
     75 O         135.5438  142.1818  152.1130 O.2     1  UNL1       -0.1802
     76 O         134.2247  140.6239  154.3112 O.2     1  UNL1       -0.1802
     77 O         133.5404  141.8693  152.7363 O.co2   1  UNL1       -0.7201
@<TRIPOS>UNITY_ATOM_ATTR
50 1
charge 1
77 1
charge -1
@<TRIPOS>BOND
     1    42    43    1
     2    43    44    1
     3    43    45    1
     4    45    46    2
     5    46    47    1
     6    47    48    1
     7    48    49    1
     8    49    50    2
     9    50    51    1
    10    51    52    1
    11    52    53    1
    12    53    54    1
    13    54    55    1
    14    55    56    1
    15    56    57    1
    16    57    58    1
    17    58    59    1
    18    59    60   ar
    19    60    61   ar
    20    61    62   ar
    21    62    41    1
    22    41     1    1
    23     1     2    2
    24     1     3   am
    25     3     5    1
    26     5     6    1
    27     6     7    1
    28     7     8    1
    29     8     9    1
    30     9    10    1
    31    10    11    1
    32    11    26    1
    33    26    27    1
    34    27    28    1
    35    28    29    1
    36    29    30   ar
    37    30    31   ar
    38    31    32   ar
    39    32    35    1
    40    35    37    1
    41    37    38    1
    42    37    39    2
    43    37    40    2
    44    32    33   ar
    45    33    34   ar
    46    11    12    1
    47    12    13    1
    48    13    14    1
    49    14    15   ar
    50    15    16   ar
    51    16    17   ar
    52    17    20    1
    53    20    22    1
    54    22    23    1
    55    22    24    2
    56    22    25    2
    57    17    18   ar
    58    18    19   ar
    59    62    63   ar
    60    63    64   ar
    61    50    65    1
    62    65    66   ar
    63    66    67   ar
    64    67    68   ar
    65    68    74    1
    66    74    75    2
    67    74    76    2
    68    74    77    1
    69    68    69   ar
    70    69    70   ar
    71    70    71    1
    72    71    72    1
    73    71    73    1
    74    64    43    1
    75    70    65   ar
    76    58    45    1
    77    64    59   ar
    78    55    46    1
    79    34    29   ar
    80    19    14   ar
    81    53    48    1
    82    71    49    1
    83     3     4    1
    84    35    36    1
    85    20    21    1
