@<TRIPOS>MOLECULE
*****
 29 33 0 0 0
SMALL
GASTEIGER

@<TRIPOS>ATOM
      1 N         138.6114  139.5250  162.9029 N.ar    1  UNL1       -0.2199
      2 N         139.0476  138.0929  162.9959 N.ar    1  UNL1       -0.1625
      3 C         138.9851  137.6820  164.4372 C.ar    1  UNL1        0.1265
      4 C         138.5102  138.8602  165.2349 C.ar    1  UNL1        0.0924
      5 C         138.2792  139.9993  164.2866 C.ar    1  UNL1        0.1311
      6 N         137.8002  141.3716  164.6571 N.pl3   1  UNL1       -0.3425
      7 H         137.6075  141.5884  165.5979 H       1  UNL1        0.1437
      8 H         137.6786  142.0555  163.9594 H       1  UNL1        0.1437
      9 C         136.9306  141.6468  155.5343 C.3     1  UNL1        0.1367
     10 C         137.3722  141.5023  156.9605 C.2     1  UNL1        0.3518
     11 N         138.1074  142.5332  157.7646 N.2     1  UNL1       -0.0350
     12 C         138.3458  141.9696  159.1341 C.2     1  UNL1        0.2318
     13 C         139.0221  142.5341  160.3481 C.2     1  UNL1        0.0514
     14 C         139.1107  141.7193  161.6043 C.2     1  UNL1        0.0192
     15 C         138.5228  140.3399  161.6465 C.2     1  UNL1        0.0704
     16 C         137.8465  139.7754  160.4326 C.3     1  UNL1        0.1235
     17 C         137.7579  140.5902  159.1763 C.2     1  UNL1        0.2190
     18 N         137.1563  140.3014  157.8330 N.2     1  UNL1       -0.0388
     19 C         138.3027  138.8935  166.7201 C.2     1  UNL1        0.2173
     20 O         137.1324  138.1806  167.3301 O.2     1  UNL1       -0.2848
     21 C         139.2656  139.6397  167.5953 C.2     1  UNL1        0.1199
     22 C         140.5841  140.2127  167.1673 C.2     1  UNL1        0.0235
     23 C         141.2124  140.8711  168.3598 C.2     1  UNL1        0.0155
     24 C         142.5113  141.6004  168.5353 C.2     1  UNL1        0.0009
     25 C         142.8801  142.1636  169.8757 C.2     1  UNL1       -0.0041
     26 C         141.9498  141.9975  171.0406 C.2     1  UNL1       -0.0198
     27 C         140.6508  141.2682  170.8651 C.3     1  UNL1        0.0717
     28 C         140.2821  140.7050  169.5247 C.2     1  UNL1        0.0635
     29 N         139.0790  139.9440  169.0522 N.2     1  UNL1       -0.2461
@<TRIPOS>BOND
     1     9    10    1
     2    10    11    2
     3    11    12    1
     4    12    13    2
     5    13    14    1
     6    14    15    2
     7    15     1    1
     8     1     2   ar
     9     2     3   ar
    10     3     4   ar
    11     4    19    1
    12    19    20    2
    13    19    21    1
    14    21    22    2
    15    22    23    1
    16    23    24    2
    17    24    25    1
    18    25    26    2
    19    26    27    1
    20    27    28    1
    21    28    29    2
    22     4     5   ar
    23     5     6    1
    24    15    16    1
    25    16    17    1
    26    17    18    2
    27    18    10    1
    28    17    12    1
    29     5     1   ar
    30    29    21    1
    31    28    23    1
    32     6     7    1
    33     6     8    1
@<TRIPOS>MOLECULE
*****
 29 33 0 0 0
SMALL
GASTEIGER

@<TRIPOS>ATOM
      1 N         138.6128  139.3302  163.1748 N.ar    1  UNL1       -0.2199
      2 N         138.9417  137.8800  163.3719 N.ar    1  UNL1       -0.1625
      3 C         138.9117  137.5938  164.8440 C.ar    1  UNL1        0.1265
      4 C         138.5641  138.8672  165.5567 C.ar    1  UNL1        0.0924
      5 C         138.3794  139.9402  164.5251 C.ar    1  UNL1        0.1311
      6 N         138.0238  141.3720  164.7962 N.pl3   1  UNL1       -0.3425
      7 H         137.8900  141.6792  165.7219 H       1  UNL1        0.1437
      8 H         137.9241  142.0045  164.0483 H       1  UNL1        0.1437
      9 C         139.9399  144.5602  157.4731 C.3     1  UNL1        0.1367
     10 C         139.5023  143.4438  158.3744 C.2     1  UNL1        0.3518
     11 N         138.5005  142.3796  158.0374 N.2     1  UNL1       -0.0350
     12 C         138.3688  141.4738  159.2257 C.2     1  UNL1        0.2318
     13 C         137.5296  140.2549  159.4705 C.2     1  UNL1        0.0514
     14 C         137.6109  139.5403  160.7868 C.2     1  UNL1        0.0192
     15 C         138.5314  140.0447  161.8584 C.2     1  UNL1        0.0704
     16 C         139.3706  141.2637  161.6136 C.3     1  UNL1        0.1235
     17 C         139.2893  141.9782  160.2973 C.2     1  UNL1        0.2190
     18 N         139.9898  143.1957  159.7711 N.2     1  UNL1       -0.0388
     19 C         138.4256  139.0375  167.0406 C.2     1  UNL1        0.2173
     20 O         137.2712  138.4089  167.7632 O.2     1  UNL1       -0.2848
     21 C         139.4416  139.8363  167.8019 C.2     1  UNL1        0.1199
     22 C         139.2936  140.3415  169.2065 C.2     1  UNL1        0.0235
     23 C         140.5445  141.0877  169.5650 C.2     1  UNL1        0.0155
     24 C         140.9638  141.8015  170.8158 C.2     1  UNL1        0.0009
     25 C         142.3042  142.4713  170.8836 C.2     1  UNL1       -0.0041
     26 C         143.2253  142.4273  169.7005 C.2     1  UNL1       -0.0198
     27 C         142.8060  141.7134  168.4497 C.3     1  UNL1        0.0717
     28 C         141.4656  141.0436  168.3819 C.2     1  UNL1        0.0635
     29 N         140.7840  140.2703  167.2923 N.2     1  UNL1       -0.2461
@<TRIPOS>BOND
     1     9    10    1
     2    10    11    2
     3    11    12    1
     4    12    13    2
     5    13    14    1
     6    14    15    2
     7    15     1    1
     8     1     2   ar
     9     2     3   ar
    10     3     4   ar
    11     4    19    1
    12    19    20    2
    13    19    21    1
    14    21    22    2
    15    22    23    1
    16    23    24    2
    17    24    25    1
    18    25    26    2
    19    26    27    1
    20    27    28    1
    21    28    29    2
    22     4     5   ar
    23     5     6    1
    24    15    16    1
    25    16    17    1
    26    17    18    2
    27    18    10    1
    28    17    12    1
    29     5     1   ar
    30    29    21    1
    31    28    23    1
    32     6     7    1
    33     6     8    1
@<TRIPOS>MOLECULE
*****
 29 33 0 0 0
SMALL
GASTEIGER

@<TRIPOS>ATOM
      1 N         143.2076  138.9695  162.6689 N.ar    1  UNL1       -0.2199
      2 N         144.4762  139.7310  162.9155 N.ar    1  UNL1       -0.1625
      3 C         144.7899  139.6474  164.3799 C.ar    1  UNL1        0.1265
      4 C         143.7151  138.8341  165.0384 C.ar    1  UNL1        0.0924
      5 C         142.7373  138.4152  163.9809 C.ar    1  UNL1        0.1311
      6 N         141.5053  137.5873  164.1975 N.pl3   1  UNL1       -0.3425
      7 H         141.2793  137.2681  165.1010 H       1  UNL1        0.1437
      8 H         140.9228  137.3631  163.4362 H       1  UNL1        0.1437
      9 C         141.8675  136.7935  155.2465 C.3     1  UNL1        0.1367
     10 C         141.8623  137.3291  156.6476 C.2     1  UNL1        0.3518
     11 N         140.7533  138.1091  157.2893 N.2     1  UNL1       -0.0350
     12 C         141.1707  138.4407  158.6913 C.2     1  UNL1        0.2318
     13 C         140.4827  139.1920  159.7923 C.2     1  UNL1        0.0514
     14 C         141.1616  139.3682  161.1181 C.2     1  UNL1        0.0192
     15 C         142.5287  138.7932  161.3430 C.2     1  UNL1        0.0704
     16 C         143.2167  138.0419  160.2420 C.3     1  UNL1        0.1235
     17 C         142.5377  137.8657  158.9162 C.2     1  UNL1        0.2190
     18 N         142.9651  137.1786  157.6531 N.2     1  UNL1       -0.0388
     19 C         143.6327  138.4988  166.4982 C.2     1  UNL1        0.2173
     20 O         144.2993  137.2614  167.0222 O.2     1  UNL1       -0.2848
     21 C         142.8837  139.4007  167.4338 C.2     1  UNL1        0.1199
     22 C         142.0689  140.5974  167.0414 C.2     1  UNL1        0.0235
     23 C         141.4996  141.2007  168.2912 C.2     1  UNL1        0.0155
     24 C         140.6194  142.3937  168.5191 C.2     1  UNL1        0.0009
     25 C         140.2022  142.7629  169.9118 C.2     1  UNL1       -0.0041
     26 C         140.6652  141.9390  171.0766 C.2     1  UNL1       -0.0198
     27 C         141.5454  140.7459  170.8487 C.3     1  UNL1        0.0717
     28 C         141.9626  140.3767  169.4560 C.2     1  UNL1        0.0635
     29 N         142.8180  139.2644  168.9261 N.2     1  UNL1       -0.2461
@<TRIPOS>BOND
     1     9    10    1
     2    10    11    2
     3    11    12    1
     4    12    13    2
     5    13    14    1
     6    14    15    2
     7    15     1    1
     8     1     2   ar
     9     2     3   ar
    10     3     4   ar
    11     4    19    1
    12    19    20    2
    13    19    21    1
    14    21    22    2
    15    22    23    1
    16    23    24    2
    17    24    25    1
    18    25    26    2
    19    26    27    1
    20    27    28    1
    21    28    29    2
    22     4     5   ar
    23     5     6    1
    24    15    16    1
    25    16    17    1
    26    17    18    2
    27    18    10    1
    28    17    12    1
    29     5     1   ar
    30    29    21    1
    31    28    23    1
    32     6     7    1
    33     6     8    1
@<TRIPOS>MOLECULE
*****
 29 33 0 0 0
SMALL
GASTEIGER

@<TRIPOS>ATOM
      1 N         140.0352  138.7789  159.4095 N.ar    1  UNL1       -0.2199
      2 N         139.2679  138.8859  158.1251 N.ar    1  UNL1       -0.1625
      3 C         140.1070  138.2915  157.0330 C.ar    1  UNL1        0.1265
      4 C         141.3928  137.8170  157.6426 C.ar    1  UNL1        0.0924
      5 C         141.3484  138.1183  159.1113 C.ar    1  UNL1        0.1311
      6 N         142.4278  137.8125  160.1071 N.pl3   1  UNL1       -0.3425
      7 H         143.2589  137.3743  159.8131 H       1  UNL1        0.1437
      8 H         142.3051  138.0501  161.0546 H       1  UNL1        0.1437
      9 C         137.8845  138.7194  166.9590 C.3     1  UNL1        0.1367
     10 C         138.2433  139.0135  165.5325 C.2     1  UNL1        0.3518
     11 N         138.2055  140.3604  164.8736 N.2     1  UNL1       -0.0350
     12 C         138.6417  140.1917  163.4484 C.2     1  UNL1        0.2318
     13 C         138.7987  141.1720  162.3240 C.2     1  UNL1        0.0514
     14 C         139.2632  140.7011  160.9777 C.2     1  UNL1        0.0192
     15 C         139.5707  139.2498  160.7559 C.2     1  UNL1        0.0704
     16 C         139.4137  138.2695  161.8803 C.3     1  UNL1        0.1235
     17 C         138.9493  138.7404  163.2265 C.2     1  UNL1        0.2190
     18 N         138.7030  138.0123  164.5146 N.2     1  UNL1       -0.0388
     19 C         142.5244  137.1572  156.9117 C.2     1  UNL1        0.2173
     20 O         143.7109  137.9664  156.4787 O.2     1  UNL1       -0.2848
     21 C         142.4695  135.6881  156.6137 C.2     1  UNL1        0.1199
     22 C         141.6010  135.0293  155.5834 C.2     1  UNL1        0.0235
     23 C         141.8682  133.5539  155.6266 C.2     1  UNL1        0.0155
     24 C         141.3039  132.4082  154.8400 C.2     1  UNL1        0.0009
     25 C         141.7731  131.0094  155.1106 C.2     1  UNL1       -0.0041
     26 C         142.8067  130.7564  156.1677 C.2     1  UNL1       -0.0198
     27 C         143.3711  131.9022  156.9543 C.3     1  UNL1        0.0717
     28 C         142.9018  133.3009  156.6838 C.2     1  UNL1        0.0635
     29 N         143.2734  134.6199  157.2938 N.2     1  UNL1       -0.2461
@<TRIPOS>BOND
     1     9    10    1
     2    10    11    2
     3    11    12    1
     4    12    13    2
     5    13    14    1
     6    14    15    2
     7    15     1    1
     8     1     2   ar
     9     2     3   ar
    10     3     4   ar
    11     4    19    1
    12    19    20    2
    13    19    21    1
    14    21    22    2
    15    22    23    1
    16    23    24    2
    17    24    25    1
    18    25    26    2
    19    26    27    1
    20    27    28    1
    21    28    29    2
    22     4     5   ar
    23     5     6    1
    24    15    16    1
    25    16    17    1
    26    17    18    2
    27    18    10    1
    28    17    12    1
    29     5     1   ar
    30    29    21    1
    31    28    23    1
    32     6     7    1
    33     6     8    1
@<TRIPOS>MOLECULE
*****
 29 33 0 0 0
SMALL
GASTEIGER

@<TRIPOS>ATOM
      1 N         142.3829  138.7218  162.5799 N.ar    1  UNL1       -0.2199
      2 N         141.0403  138.3706  163.1491 N.ar    1  UNL1       -0.1625
      3 C         141.1672  138.3270  164.6431 C.ar    1  UNL1        0.1265
      4 C         142.5883  138.6513  164.9972 C.ar    1  UNL1        0.0924
      5 C         143.3397  138.8953  163.7220 C.ar    1  UNL1        0.1311
      6 N         144.7926  139.2504  163.6090 N.pl3   1  UNL1       -0.3425
      7 H         145.3415  139.3422  164.4211 H       1  UNL1        0.1437
      8 H         145.1973  139.3917  162.7227 H       1  UNL1        0.1437
      9 C         143.2264  137.0760  154.9508 C.3     1  UNL1        0.1367
     10 C         143.1715  137.6482  156.3363 C.2     1  UNL1        0.3518
     11 N         143.5934  139.0308  156.7366 N.2     1  UNL1       -0.0350
     12 C         143.3677  139.1753  158.2124 C.2     1  UNL1        0.2318
     13 C         143.6008  140.3175  159.1564 C.2     1  UNL1        0.0514
     14 C         143.2726  140.1663  160.6121 C.2     1  UNL1        0.0192
     15 C         142.7112  138.8729  161.1240 C.2     1  UNL1        0.0704
     16 C         142.4781  137.7307  160.1801 C.3     1  UNL1        0.1235
     17 C         142.8063  137.8819  158.7243 C.2     1  UNL1        0.2190
     18 N         142.6851  136.9381  157.5648 N.2     1  UNL1       -0.0388
     19 C         143.1581  138.7196  166.3831 C.2     1  UNL1        0.2173
     20 O         144.3401  137.8725  166.7507 O.2     1  UNL1       -0.2848
     21 C         142.5458  139.6351  167.4014 C.2     1  UNL1        0.1199
     22 C         142.4940  139.3986  168.8817 C.2     1  UNL1        0.0235
     23 C         141.7940  140.5652  169.5134 C.2     1  UNL1        0.0155
     24 C         141.4542  140.8792  170.9402 C.2     1  UNL1        0.0009
     25 C         140.7335  142.1508  171.2771 C.2     1  UNL1       -0.0041
     26 C         140.3526  143.1084  170.1872 C.2     1  UNL1       -0.0198
     27 C         140.6924  142.7943  168.7604 C.3     1  UNL1        0.0717
     28 C         141.4131  141.5227  168.4234 C.2     1  UNL1        0.0635
     29 N         141.8777  140.9480  167.1182 N.2     1  UNL1       -0.2461
@<TRIPOS>BOND
     1     9    10    1
     2    10    11    2
     3    11    12    1
     4    12    13    2
     5    13    14    1
     6    14    15    2
     7    15     1    1
     8     1     2   ar
     9     2     3   ar
    10     3     4   ar
    11     4    19    1
    12    19    20    2
    13    19    21    1
    14    21    22    2
    15    22    23    1
    16    23    24    2
    17    24    25    1
    18    25    26    2
    19    26    27    1
    20    27    28    1
    21    28    29    2
    22     4     5   ar
    23     5     6    1
    24    15    16    1
    25    16    17    1
    26    17    18    2
    27    18    10    1
    28    17    12    1
    29     5     1   ar
    30    29    21    1
    31    28    23    1
    32     6     7    1
    33     6     8    1
@<TRIPOS>MOLECULE
*****
 29 33 0 0 0
SMALL
GASTEIGER

@<TRIPOS>ATOM
      1 N         139.3268  139.4851  162.5480 N.ar    1  UNL1       -0.2199
      2 N         138.3688  140.6267  162.7187 N.ar    1  UNL1       -0.1625
      3 C         137.9064  140.6343  164.1456 C.ar    1  UNL1        0.1265
      4 C         138.5786  139.4974  164.8568 C.ar    1  UNL1        0.0924
      5 C         139.4564  138.7872  163.8694 C.ar    1  UNL1        0.1311
      6 N         140.3134  137.5894  164.1535 N.pl3   1  UNL1       -0.3425
      7 H         140.3318  137.2007  165.0578 H       1  UNL1        0.1437
      8 H         140.8575  137.1920  163.4357 H       1  UNL1        0.1437
      9 C         140.5593  137.2635  155.1205 C.3     1  UNL1        0.1367
     10 C         140.6112  137.6943  156.5563 C.2     1  UNL1        0.3518
     11 N         141.8545  137.9407  157.3585 N.2     1  UNL1       -0.0350
     12 C         141.4406  138.3531  158.7401 C.2     1  UNL1        0.2318
     13 C         142.2351  138.7220  159.9577 C.2     1  UNL1        0.0514
     14 C         141.5305  139.0993  161.2270 C.2     1  UNL1        0.0192
     15 C         140.0314  139.1078  161.2786 C.2     1  UNL1        0.0704
     16 C         139.2369  138.7389  160.0610 C.3     1  UNL1        0.1235
     17 C         139.9415  138.3616  158.7917 C.2     1  UNL1        0.2190
     18 N         139.4290  137.9544  157.4421 N.2     1  UNL1       -0.0388
     19 C         138.4037  139.1345  166.3017 C.2     1  UNL1        0.2173
     20 O         137.2583  138.2622  166.7225 O.2     1  UNL1       -0.2848
     21 C         139.3742  139.6439  167.3257 C.2     1  UNL1        0.1199
     22 C         140.7740  140.1115  167.0579 C.2     1  UNL1        0.0235
     23 C         141.3803  140.5317  168.3641 C.2     1  UNL1        0.0155
     24 C         142.7333  141.0767  168.7134 C.2     1  UNL1        0.0009
     25 C         143.0612  141.4139  170.1377 C.2     1  UNL1       -0.0041
     26 C         142.0360  141.2059  171.2127 C.2     1  UNL1       -0.0198
     27 C         140.6829  140.6608  170.8634 C.3     1  UNL1        0.0717
     28 C         140.3550  140.3237  169.4391 C.2     1  UNL1        0.0635
     29 N         139.1153  139.7750  168.7974 N.2     1  UNL1       -0.2461
@<TRIPOS>BOND
     1     9    10    1
     2    10    11    2
     3    11    12    1
     4    12    13    2
     5    13    14    1
     6    14    15    2
     7    15     1    1
     8     1     2   ar
     9     2     3   ar
    10     3     4   ar
    11     4    19    1
    12    19    20    2
    13    19    21    1
    14    21    22    2
    15    22    23    1
    16    23    24    2
    17    24    25    1
    18    25    26    2
    19    26    27    1
    20    27    28    1
    21    28    29    2
    22     4     5   ar
    23     5     6    1
    24    15    16    1
    25    16    17    1
    26    17    18    2
    27    18    10    1
    28    17    12    1
    29     5     1   ar
    30    29    21    1
    31    28    23    1
    32     6     7    1
    33     6     8    1
@<TRIPOS>MOLECULE
*****
 29 33 0 0 0
SMALL
GASTEIGER

@<TRIPOS>ATOM
      1 N         139.8536  138.7376  158.5927 N.ar    1  UNL1       -0.2199
      2 N         139.1787  138.5424  157.2674 N.ar    1  UNL1       -0.1625
      3 C         140.1195  137.7890  156.3746 C.ar    1  UNL1        0.1265
      4 C         141.3760  137.5186  157.1481 C.ar    1  UNL1        0.0924
      5 C         141.2116  138.1049  158.5189 C.ar    1  UNL1        0.1311
      6 N         142.2270  138.0653  159.6223 N.pl3   1  UNL1       -0.3425
      7 H         143.0950  137.6241  159.4768 H       1  UNL1        0.1437
      8 H         142.0255  138.4806  160.4919 H       1  UNL1        0.1437
      9 C         137.4856  144.4775  163.3957 C.3     1  UNL1        0.1367
     10 C         137.8398  143.2054  162.6841 C.2     1  UNL1        0.3518
     11 N         137.6040  141.8147  163.1944 N.2     1  UNL1       -0.0350
     12 C         138.1104  140.8505  162.1630 C.2     1  UNL1        0.2318
     13 C         138.1427  139.3515  162.1206 C.2     1  UNL1        0.0514
     14 C         138.7238  138.6472  160.9305 C.2     1  UNL1        0.0192
     15 C         139.2725  139.4420  159.7828 C.2     1  UNL1        0.0704
     16 C         139.2402  140.9410  159.8252 C.3     1  UNL1        0.1235
     17 C         138.6592  141.6452  161.0153 C.2     1  UNL1        0.2190
     18 N         138.4919  143.1007  161.3374 N.2     1  UNL1       -0.0388
     19 C         142.5846  136.7899  156.6399 C.2     1  UNL1        0.2173
     20 O         143.8311  137.5513  156.2986 O.2     1  UNL1       -0.2848
     21 C         142.5467  135.2997  156.4730 C.2     1  UNL1        0.1199
     22 C         141.6819  134.5421  155.5097 C.2     1  UNL1        0.0235
     23 C         141.9677  133.0795  155.6815 C.2     1  UNL1        0.0155
     24 C         141.4142  131.8622  155.0022 C.2     1  UNL1        0.0009
     25 C         141.9022  130.4985  155.3925 C.2     1  UNL1       -0.0041
     26 C         142.9436  130.3523  156.4620 C.2     1  UNL1       -0.0198
     27 C         143.4972  131.5697  157.1413 C.3     1  UNL1        0.0717
     28 C         143.0093  132.9334  156.7510 C.2     1  UNL1        0.0635
     29 N         143.3671  134.3054  157.2402 N.2     1  UNL1       -0.2461
@<TRIPOS>BOND
     1     9    10    1
     2    10    11    2
     3    11    12    1
     4    12    13    2
     5    13    14    1
     6    14    15    2
     7    15     1    1
     8     1     2   ar
     9     2     3   ar
    10     3     4   ar
    11     4    19    1
    12    19    20    2
    13    19    21    1
    14    21    22    2
    15    22    23    1
    16    23    24    2
    17    24    25    1
    18    25    26    2
    19    26    27    1
    20    27    28    1
    21    28    29    2
    22     4     5   ar
    23     5     6    1
    24    15    16    1
    25    16    17    1
    26    17    18    2
    27    18    10    1
    28    17    12    1
    29     5     1   ar
    30    29    21    1
    31    28    23    1
    32     6     7    1
    33     6     8    1
@<TRIPOS>MOLECULE
*****
 29 33 0 0 0
SMALL
GASTEIGER

@<TRIPOS>ATOM
      1 N         139.2439  145.8865  155.8490 N.ar    1  UNL1       -0.2199
      2 N         138.3515  144.7957  155.3353 N.ar    1  UNL1       -0.1625
      3 C         138.5301  143.5963  156.2182 C.ar    1  UNL1        0.1265
      4 C         139.5330  143.9458  157.2775 C.ar    1  UNL1        0.0924
      5 C         139.9741  145.3612  157.0493 C.ar    1  UNL1        0.1311
      6 N         140.9705  146.1183  157.8763 N.pl3   1  UNL1       -0.3425
      7 H         141.3990  145.6850  158.6495 H       1  UNL1        0.1437
      8 H         141.1959  147.0485  157.6459 H       1  UNL1        0.1437
      9 C         138.3554  153.6081  154.7491 C.3     1  UNL1        0.1367
     10 C         138.6974  152.1478  154.7290 C.2     1  UNL1        0.3518
     11 N         139.6009  151.4673  153.7438 N.2     1  UNL1       -0.0350
     12 C         139.6578  150.0104  154.0964 C.2     1  UNL1        0.2318
     13 C         140.3882  148.8557  153.4774 C.2     1  UNL1        0.0514
     14 C         140.2502  147.4811  154.0616 C.2     1  UNL1        0.0192
     15 C         139.3819  147.2612  155.2648 C.2     1  UNL1        0.0704
     16 C         138.6515  148.4159  155.8838 C.3     1  UNL1        0.1235
     17 C         138.7895  149.7905  155.2996 C.2     1  UNL1        0.2190
     18 N         138.1960  151.1115  155.6905 N.2     1  UNL1       -0.0388
     19 C         140.0108  143.0391  158.3728 C.2     1  UNL1        0.2173
     20 O         140.8829  141.8632  158.0460 O.2     1  UNL1       -0.2848
     21 C         139.6165  143.3082  159.7947 C.2     1  UNL1        0.1199
     22 C         138.5803  142.5593  160.5792 C.2     1  UNL1        0.0235
     23 C         138.5126  143.1617  161.9513 C.2     1  UNL1        0.0155
     24 C         137.6740  142.8342  163.1510 C.2     1  UNL1        0.0009
     25 C         137.8297  143.6279  164.4142 C.2     1  UNL1       -0.0041
     26 C         138.8241  144.7491  164.4777 C.2     1  UNL1       -0.0198
     27 C         139.6627  145.0766  163.2780 C.3     1  UNL1        0.0717
     28 C         139.5070  144.2830  162.0147 C.2     1  UNL1        0.0635
     29 N         140.1892  144.3735  160.6820 N.2     1  UNL1       -0.2461
@<TRIPOS>BOND
     1     9    10    1
     2    10    11    2
     3    11    12    1
     4    12    13    2
     5    13    14    1
     6    14    15    2
     7    15     1    1
     8     1     2   ar
     9     2     3   ar
    10     3     4   ar
    11     4    19    1
    12    19    20    2
    13    19    21    1
    14    21    22    2
    15    22    23    1
    16    23    24    2
    17    24    25    1
    18    25    26    2
    19    26    27    1
    20    27    28    1
    21    28    29    2
    22     4     5   ar
    23     5     6    1
    24    15    16    1
    25    16    17    1
    26    17    18    2
    27    18    10    1
    28    17    12    1
    29     5     1   ar
    30    29    21    1
    31    28    23    1
    32     6     7    1
    33     6     8    1
@<TRIPOS>MOLECULE
*****
 29 33 0 0 0
SMALL
GASTEIGER

@<TRIPOS>ATOM
      1 N         140.2547  139.3868  162.0019 N.ar    1  UNL1       -0.2199
      2 N         138.8164  139.7831  161.8466 N.ar    1  UNL1       -0.1625
      3 C         138.1328  139.5733  163.1652 C.ar    1  UNL1        0.1265
      4 C         139.1487  139.0473  164.1355 C.ar    1  UNL1        0.0924
      5 C         140.4601  138.9320  163.4165 C.ar    1  UNL1        0.1311
      6 N         141.7503  138.4471  164.0083 N.pl3   1  UNL1       -0.3425
      7 H         141.7851  138.1687  164.9519 H       1  UNL1        0.1437
      8 H         142.5622  138.4072  163.4530 H       1  UNL1        0.1437
      9 C         145.5454  142.1751  156.9169 C.3     1  UNL1        0.1367
     10 C         144.6076  141.3853  157.7812 C.2     1  UNL1        0.3518
     11 N         144.4394  139.8949  157.7669 N.2     1  UNL1       -0.0350
     12 C         143.4012  139.5358  158.7883 C.2     1  UNL1        0.2318
     13 C         142.8258  138.2176  159.2140 C.2     1  UNL1        0.0514
     14 C         141.7770  138.1679  160.2852 C.2     1  UNL1        0.0192
     15 C         141.3036  139.4365  160.9307 C.2     1  UNL1        0.0704
     16 C         141.8790  140.7547  160.5050 C.3     1  UNL1        0.1235
     17 C         142.9278  140.8043  159.4339 C.2     1  UNL1        0.2190
     18 N         143.6734  141.9474  158.8114 N.2     1  UNL1       -0.0388
     19 C         138.8972  138.6979  165.5724 C.2     1  UNL1        0.2173
     20 O         138.2761  137.3791  165.9260 O.2     1  UNL1       -0.2848
     21 C         139.2669  139.6673  166.6557 C.2     1  UNL1        0.1199
     22 C         139.9100  141.0078  166.4575 C.2     1  UNL1        0.0235
     23 C         140.0989  141.6354  167.8067 C.2     1  UNL1        0.0155
     24 C         140.6822  142.9512  168.2289 C.2     1  UNL1        0.0009
     25 C         140.7391  143.3144  169.6831 C.2     1  UNL1       -0.0041
     26 C         140.2128  142.3617  170.7152 C.2     1  UNL1       -0.0198
     27 C         139.6294  141.0458  170.2931 C.3     1  UNL1        0.0717
     28 C         139.5725  140.6826  168.8388 C.2     1  UNL1        0.0635
     29 N         139.0583  139.4664  168.1275 N.2     1  UNL1       -0.2461
@<TRIPOS>BOND
     1     9    10    1
     2    10    11    2
     3    11    12    1
     4    12    13    2
     5    13    14    1
     6    14    15    2
     7    15     1    1
     8     1     2   ar
     9     2     3   ar
    10     3     4   ar
    11     4    19    1
    12    19    20    2
    13    19    21    1
    14    21    22    2
    15    22    23    1
    16    23    24    2
    17    24    25    1
    18    25    26    2
    19    26    27    1
    20    27    28    1
    21    28    29    2
    22     4     5   ar
    23     5     6    1
    24    15    16    1
    25    16    17    1
    26    17    18    2
    27    18    10    1
    28    17    12    1
    29     5     1   ar
    30    29    21    1
    31    28    23    1
    32     6     7    1
    33     6     8    1
