@<TRIPOS>MOLECULE
*****
 31 34 0 0 0
SMALL
GASTEIGER

@<TRIPOS>ATOM
      1 C         139.2808  139.7257  165.5520 C.3     1  UNL1        0.0216
      2 C         140.0318  140.1824  164.3365 C.3     1  UNL1        0.0214
      3 C         140.5059  140.6055  162.9778 C.3     1  UNL1        0.0724
      4 N         139.3383  140.5402  162.0383 N.3     1  UNL1       -0.2727
      5 C         138.1426  140.0768  162.8165 C.3     1  UNL1        0.0724
      6 C         138.5712  139.8556  164.2368 C.3     1  UNL1        0.0214
      7 C         140.3843  139.7584  166.5675 C.ar    1  UNL1       -0.0214
      8 C         141.6767  139.0480  166.2937 C.ar    1  UNL1       -0.0042
      9 C         142.7802  139.0806  167.3092 C.ar    1  UNL1        0.0010
     10 C         142.5913  139.8237  168.5985 C.ar    1  UNL1        0.0158
     11 C         141.2989  140.5341  168.8722 C.ar    1  UNL1        0.0641
     12 C         140.1954  140.5015  167.8567 C.ar    1  UNL1        0.0116
     13 N         141.1100  141.2772  170.1614 N.pl3   1  UNL1       -0.2187
     14 H         141.2412  140.8142  171.0203 H       1  UNL1        0.1734
     15 S         140.7211  142.7258  170.1421 S.O2    1  UNL1        0.0558
     16 C         140.3323  144.1745  170.1228 C.3     1  UNL1        0.1996
     17 O         142.0814  143.0840  169.6213 O.2     1  UNL1       -0.1544
     18 O         139.3609  142.3676  170.6630 O.2     1  UNL1       -0.1544
     19 C         137.8765  137.7901  166.5675 C.3     1  UNL1        0.0003
     20 C         138.1465  139.2577  166.4148 C.3     1  UNL1        0.0041
     21 C         139.3623  140.8789  160.5773 C.3     1  UNL1        0.0722
     22 C         138.9484  142.2454  160.1174 C.3     1  UNL1        0.0197
     23 C         139.3345  143.4547  160.9167 C.3     1  UNL1        0.0283
     24 C         138.6948  143.7083  162.2495 C.3     1  UNL1        0.0884
     25 O         137.4967  143.2587  161.4669 O.3     1  UNL1       -0.3867
     26 C         140.1150  144.0698  162.5692 C.3     1  UNL1        0.0269
     27 C         140.4794  144.5288  163.9500 C.3     1  UNL1        0.0024
     28 C         139.4236  144.6263  165.0110 C.3     1  UNL1        0.0002
     29 C         138.0033  144.2647  164.6912 C.3     1  UNL1        0.0024
     30 C         137.6389  143.8057  163.3105 C.3     1  UNL1        0.0269
     31 H         137.7633  143.0531  160.5572 H       1  UNL1        0.2102
@<TRIPOS>BOND
     1    19    20    1
     2     1    20    1
     3     1     7    1
     4     7     8   ar
     5     8     9   ar
     6     9    10   ar
     7    10    11   ar
     8    11    13    1
     9    13    15    1
    10    15    16    1
    11    15    17    2
    12    15    18    2
    13    11    12   ar
    14     1     2    1
    15     2     3    1
    16     3     4    1
    17     4    21    1
    18    21    22    1
    19    22    23    1
    20    23    24    1
    21    24    25    1
    22    24    26    1
    23    26    27    1
    24    27    28    1
    25    28    29    1
    26    29    30    1
    27     4     5    1
    28     6     5    1
    29     6     1    1
    30    12     7   ar
    31     6     2    1
    32    30    24    1
    33    13    14    1
    34    25    31    1
@<TRIPOS>MOLECULE
*****
 31 34 0 0 0
SMALL
GASTEIGER

@<TRIPOS>ATOM
      1 C         141.4819  140.8094  166.8375 C.3     1  UNL1        0.0216
      2 C         141.8290  141.1251  165.4127 C.3     1  UNL1        0.0214
      3 C         142.4027  141.6156  164.1165 C.3     1  UNL1        0.0724
      4 N         143.5590  142.5172  164.4329 N.3     1  UNL1       -0.2727
      5 C         143.6999  142.5840  165.9248 C.3     1  UNL1        0.0724
      6 C         142.6308  141.7237  166.5303 C.3     1  UNL1        0.0214
      7 C         140.3125  139.8945  166.6240 C.ar    1  UNL1       -0.0214
      8 C         139.2113  139.8352  167.6407 C.ar    1  UNL1       -0.0042
      9 C         138.0420  138.9202  167.4272 C.ar    1  UNL1        0.0010
     10 C         137.9739  138.0646  166.1970 C.ar    1  UNL1        0.0158
     11 C         139.0752  138.1239  165.1803 C.ar    1  UNL1        0.0641
     12 C         140.2445  139.0389  165.3938 C.ar    1  UNL1        0.0116
     13 N         139.0072  137.2683  163.9502 N.pl3   1  UNL1       -0.2187
     14 H         138.7268  136.3272  164.0201 H       1  UNL1        0.1734
     15 S         139.3663  137.8467  162.6136 S.O2    1  UNL1        0.0558
     16 C         139.7253  138.4250  161.2769 C.3     1  UNL1        0.1996
     17 O         138.0826  138.6225  162.6044 O.2     1  UNL1       -0.1544
     18 O         140.6500  137.0708  162.6228 O.2     1  UNL1       -0.1544
     19 C         142.6265  140.0571  169.0452 C.3     1  UNL1        0.0003
     20 C         141.5409  140.8114  168.3363 C.3     1  UNL1        0.0041
     21 C         144.4226  143.2273  163.4330 C.3     1  UNL1        0.0722
     22 C         144.0497  144.6018  162.9620 C.3     1  UNL1        0.0197
     23 C         142.7889  145.2474  163.4558 C.3     1  UNL1        0.0283
     24 C         141.4820  144.9543  162.7804 C.3     1  UNL1        0.0884
     25 O         142.3698  145.0955  161.5796 O.3     1  UNL1       -0.3867
     26 C         141.0481  144.9150  164.2157 C.3     1  UNL1        0.0269
     27 C         139.6156  144.6315  164.5587 C.3     1  UNL1        0.0024
     28 C         138.6170  144.3875  163.4664 C.3     1  UNL1        0.0002
     29 C         139.0510  144.4269  162.0310 C.3     1  UNL1        0.0024
     30 C         140.4834  144.7103  161.6881 C.3     1  UNL1        0.0269
     31 H         143.2748  145.2922  161.8680 H       1  UNL1        0.2102
@<TRIPOS>BOND
     1    19    20    1
     2     1    20    1
     3     1     7    1
     4     7     8   ar
     5     8     9   ar
     6     9    10   ar
     7    10    11   ar
     8    11    13    1
     9    13    15    1
    10    15    16    1
    11    15    17    2
    12    15    18    2
    13    11    12   ar
    14     1     2    1
    15     2     3    1
    16     3     4    1
    17     4    21    1
    18    21    22    1
    19    22    23    1
    20    23    24    1
    21    24    25    1
    22    24    26    1
    23    26    27    1
    24    27    28    1
    25    28    29    1
    26    29    30    1
    27     4     5    1
    28     6     5    1
    29     6     1    1
    30    12     7   ar
    31     6     2    1
    32    30    24    1
    33    13    14    1
    34    25    31    1
@<TRIPOS>MOLECULE
*****
 31 34 0 0 0
SMALL
GASTEIGER

@<TRIPOS>ATOM
      1 C         138.6069  139.2549  166.3121 C.3     1  UNL1        0.0216
      2 C         139.2895  140.5515  166.6327 C.3     1  UNL1        0.0214
      3 C         139.9579  141.7446  167.2490 C.3     1  UNL1        0.0724
      4 N         140.0325  141.5204  168.7303 N.3     1  UNL1       -0.2727
      5 C         139.4103  140.1888  169.0295 C.3     1  UNL1        0.0724
      6 C         138.9511  139.5900  167.7332 C.3     1  UNL1        0.0214
      7 C         138.4851  139.3860  164.8228 C.ar    1  UNL1       -0.0214
      8 C         138.7081  138.1910  163.9440 C.ar    1  UNL1       -0.0042
      9 C         138.5864  138.3221  162.4547 C.ar    1  UNL1        0.0010
     10 C         138.2415  139.6482  161.8443 C.ar    1  UNL1        0.0158
     11 C         138.0185  140.8431  162.7231 C.ar    1  UNL1        0.0641
     12 C         138.1403  140.7120  164.2123 C.ar    1  UNL1        0.0116
     13 N         137.6737  142.1692  162.1126 N.pl3   1  UNL1       -0.2187
     14 H         136.8764  142.2558  161.5416 H       1  UNL1        0.1734
     15 S         138.5437  143.3633  162.3721 S.O2    1  UNL1        0.0558
     16 C         139.4137  144.5573  162.6316 C.3     1  UNL1        0.1996
     17 O         139.6351  142.7471  161.5480 O.2     1  UNL1       -0.1544
     18 O         137.4522  143.9794  163.1962 O.2     1  UNL1       -0.1544
     19 C         136.9588  137.7155  167.6022 C.3     1  UNL1        0.0003
     20 C         137.9665  137.9127  166.5087 C.3     1  UNL1        0.0041
     21 C         140.6253  142.4625  169.7358 C.3     1  UNL1        0.0722
     22 C         142.0435  142.9270  169.5832 C.3     1  UNL1        0.0197
     23 C         143.1436  141.9262  169.3876 C.3     1  UNL1        0.0283
     24 C         143.0726  140.9453  168.2550 C.3     1  UNL1        0.0884
     25 O         142.8796  140.0162  169.4167 O.3     1  UNL1       -0.3867
     26 C         143.2902  142.2150  167.4867 C.3     1  UNL1        0.0269
     27 C         143.3699  142.1813  165.9892 C.3     1  UNL1        0.0024
     28 C         143.2318  140.8777  165.2600 C.3     1  UNL1        0.0002
     29 C         143.0141  139.6079  166.0284 C.3     1  UNL1        0.0024
     30 C         142.9345  139.6417  167.5258 C.3     1  UNL1        0.0269
     31 H         142.9027  140.5230  170.2434 H       1  UNL1        0.2102
@<TRIPOS>BOND
     1    19    20    1
     2     1    20    1
     3     1     7    1
     4     7     8   ar
     5     8     9   ar
     6     9    10   ar
     7    10    11   ar
     8    11    13    1
     9    13    15    1
    10    15    16    1
    11    15    17    2
    12    15    18    2
    13    11    12   ar
    14     1     2    1
    15     2     3    1
    16     3     4    1
    17     4    21    1
    18    21    22    1
    19    22    23    1
    20    23    24    1
    21    24    25    1
    22    24    26    1
    23    26    27    1
    24    27    28    1
    25    28    29    1
    26    29    30    1
    27     4     5    1
    28     6     5    1
    29     6     1    1
    30    12     7   ar
    31     6     2    1
    32    30    24    1
    33    13    14    1
    34    25    31    1
@<TRIPOS>MOLECULE
*****
 31 34 0 0 0
SMALL
GASTEIGER

@<TRIPOS>ATOM
      1 C         140.0113  142.7599  164.8194 C.3     1  UNL1        0.0216
      2 C         140.5442  142.0897  163.5878 C.3     1  UNL1        0.0214
      3 C         141.1479  141.7121  162.2676 C.3     1  UNL1        0.0724
      4 N         141.5976  142.9706  161.5865 N.3     1  UNL1       -0.2727
      5 C         141.2719  144.1261  162.4858 C.3     1  UNL1        0.0724
      6 C         140.6209  143.5818  163.7226 C.3     1  UNL1        0.0214
      7 C         139.5286  141.5606  165.5803 C.ar    1  UNL1       -0.0214
      8 C         138.5259  140.6330  164.9606 C.ar    1  UNL1       -0.0042
      9 C         138.0433  139.4338  165.7214 C.ar    1  UNL1        0.0010
     10 C         138.5633  139.1622  167.1019 C.ar    1  UNL1        0.0158
     11 C         139.5659  140.0898  167.7216 C.ar    1  UNL1        0.0641
     12 C         140.0486  141.2890  166.9608 C.ar    1  UNL1        0.0116
     13 N         140.0859  139.8182  169.1021 N.pl3   1  UNL1       -0.2187
     14 H         140.2608  138.8929  169.3890 H       1  UNL1        0.1734
     15 S         140.3395  140.9565  170.0454 S.O2    1  UNL1        0.0558
     16 C         140.5930  142.0949  170.9888 C.3     1  UNL1        0.1996
     17 O         138.8634  141.0980  170.2715 O.2     1  UNL1       -0.1544
     18 O         141.8156  140.8151  169.8193 O.2     1  UNL1       -0.1544
     19 C         138.6187  144.8723  165.4096 C.3     1  UNL1        0.0003
     20 C         139.6460  143.8465  165.7869 C.3     1  UNL1        0.0041
     21 C         142.2573  143.0582  160.2422 C.3     1  UNL1        0.0722
     22 C         143.5491  142.3379  159.9924 C.3     1  UNL1        0.0197
     23 C         144.7495  142.6342  160.8419 C.3     1  UNL1        0.0283
     24 C         144.6480  142.5575  162.3365 C.3     1  UNL1        0.0884
     25 O         144.7159  144.0451  162.1560 O.3     1  UNL1       -0.3867
     26 C         144.6154  141.0967  161.9979 C.3     1  UNL1        0.0269
     27 C         144.5048  140.0756  163.0912 C.3     1  UNL1        0.0024
     28 C         144.4269  140.5156  164.5231 C.3     1  UNL1        0.0002
     29 C         144.4595  141.9765  164.8617 C.3     1  UNL1        0.0024
     30 C         144.5701  142.9975  163.7684 C.3     1  UNL1        0.0269
     31 H         144.7860  144.2533  161.2112 H       1  UNL1        0.2102
@<TRIPOS>BOND
     1    19    20    1
     2     1    20    1
     3     1     7    1
     4     7     8   ar
     5     8     9   ar
     6     9    10   ar
     7    10    11   ar
     8    11    13    1
     9    13    15    1
    10    15    16    1
    11    15    17    2
    12    15    18    2
    13    11    12   ar
    14     1     2    1
    15     2     3    1
    16     3     4    1
    17     4    21    1
    18    21    22    1
    19    22    23    1
    20    23    24    1
    21    24    25    1
    22    24    26    1
    23    26    27    1
    24    27    28    1
    25    28    29    1
    26    29    30    1
    27     4     5    1
    28     6     5    1
    29     6     1    1
    30    12     7   ar
    31     6     2    1
    32    30    24    1
    33    13    14    1
    34    25    31    1
@<TRIPOS>MOLECULE
*****
 31 34 0 0 0
SMALL
GASTEIGER

@<TRIPOS>ATOM
      1 C         141.8364  140.7073  166.8532 C.3     1  UNL1        0.0216
      2 C         141.7115  141.6682  165.7082 C.3     1  UNL1        0.0214
      3 C         141.8593  142.7411  164.6704 C.3     1  UNL1        0.0724
      4 N         143.1371  143.4777  164.9438 N.3     1  UNL1       -0.2727
      5 C         143.7790  142.8601  166.1507 C.3     1  UNL1        0.0724
      6 C         142.8980  141.7418  166.6231 C.3     1  UNL1        0.0214
      7 C         140.5799  139.9105  166.6627 C.ar    1  UNL1       -0.0214
      8 C         139.4877  139.9756  167.6888 C.ar    1  UNL1       -0.0042
      9 C         138.2312  139.1788  167.4982 C.ar    1  UNL1        0.0010
     10 C         138.0669  138.3169  166.2817 C.ar    1  UNL1        0.0158
     11 C         139.1591  138.2517  165.2556 C.ar    1  UNL1        0.0641
     12 C         140.4156  139.0486  165.4461 C.ar    1  UNL1        0.0116
     13 N         138.9949  137.3898  164.0390 N.pl3   1  UNL1       -0.2187
     14 H         138.6671  136.4660  164.1308 H       1  UNL1        0.1734
     15 S         139.3299  137.9354  162.6825 S.O2    1  UNL1        0.0558
     16 C         139.6650  138.4810  161.3260 C.3     1  UNL1        0.1996
     17 O         138.1058  138.8010  162.7283 O.2     1  UNL1       -0.1544
     18 O         140.5541  137.0698  162.6368 O.2     1  UNL1       -0.1544
     19 C         142.8088  140.8314  169.2593 C.3     1  UNL1        0.0003
     20 C         142.3976  140.0231  168.0645 C.3     1  UNL1        0.0041
     21 C         143.6778  144.6297  164.1498 C.3     1  UNL1        0.0722
     22 C         144.0618  144.4355  162.7128 C.3     1  UNL1        0.0197
     23 C         144.7974  143.1971  162.2939 C.3     1  UNL1        0.0283
     24 C         144.0778  141.8825  162.2306 C.3     1  UNL1        0.0884
     25 O         143.2758  142.6666  161.2347 O.3     1  UNL1       -0.3867
     26 C         145.1297  141.5550  163.2485 C.3     1  UNL1        0.0269
     27 C         145.1835  140.1851  163.8574 C.3     1  UNL1        0.0024
     28 C         144.1854  139.1428  163.4482 C.3     1  UNL1        0.0002
     29 C         143.1334  139.4705  162.4303 C.3     1  UNL1        0.0024
     30 C         143.0797  140.8403  161.8215 C.3     1  UNL1        0.0269
     31 H         143.6347  143.5652  161.1662 H       1  UNL1        0.2102
@<TRIPOS>BOND
     1    19    20    1
     2     1    20    1
     3     1     7    1
     4     7     8   ar
     5     8     9   ar
     6     9    10   ar
     7    10    11   ar
     8    11    13    1
     9    13    15    1
    10    15    16    1
    11    15    17    2
    12    15    18    2
    13    11    12   ar
    14     1     2    1
    15     2     3    1
    16     3     4    1
    17     4    21    1
    18    21    22    1
    19    22    23    1
    20    23    24    1
    21    24    25    1
    22    24    26    1
    23    26    27    1
    24    27    28    1
    25    28    29    1
    26    29    30    1
    27     4     5    1
    28     6     5    1
    29     6     1    1
    30    12     7   ar
    31     6     2    1
    32    30    24    1
    33    13    14    1
    34    25    31    1
@<TRIPOS>MOLECULE
*****
 31 34 0 0 0
SMALL
GASTEIGER

@<TRIPOS>ATOM
      1 C         140.0336  139.9610  164.9837 C.3     1  UNL1        0.0216
      2 C         139.8828  141.4518  165.0519 C.3     1  UNL1        0.0214
      3 C         139.5636  142.9046  164.8581 C.3     1  UNL1        0.0724
      4 N         138.7272  143.0343  163.6197 N.3     1  UNL1       -0.2727
      5 C         138.5294  141.6617  163.0481 C.3     1  UNL1        0.0724
      6 C         139.2436  140.6837  163.9332 C.3     1  UNL1        0.0214
      7 C         140.8725  139.7280  166.2053 C.ar    1  UNL1       -0.0214
      8 C         142.2329  139.1100  166.0742 C.ar    1  UNL1       -0.0042
      9 C         143.0717  138.8771  167.2958 C.ar    1  UNL1        0.0010
     10 C         142.5500  139.2622  168.6484 C.ar    1  UNL1        0.0158
     11 C         141.1896  139.8802  168.7795 C.ar    1  UNL1        0.0641
     12 C         140.3508  140.1131  167.5579 C.ar    1  UNL1        0.0116
     13 N         140.6679  140.2653  170.1321 N.pl3   1  UNL1       -0.2187
     14 H         140.6203  139.5941  170.8507 H       1  UNL1        0.1734
     15 S         140.2187  141.6730  170.3898 S.O2    1  UNL1        0.0558
     16 C         139.7696  143.0809  170.6475 C.3     1  UNL1        0.1996
     17 O         141.6415  142.1415  170.3107 O.2     1  UNL1       -0.1544
     18 O         138.7960  141.2046  170.4688 O.2     1  UNL1       -0.1544
     19 C         138.9173  137.6208  165.1488 C.3     1  UNL1        0.0003
     20 C         139.8932  138.5510  164.4914 C.3     1  UNL1        0.0041
     21 C         138.1840  144.3123  163.0526 C.3     1  UNL1        0.0722
     22 C         139.1170  145.3250  162.4576 C.3     1  UNL1        0.0197
     23 C         140.4268  144.8858  161.8730 C.3     1  UNL1        0.0283
     24 C         141.6532  144.8345  162.7349 C.3     1  UNL1        0.0884
     25 O         141.1199  146.1824  163.1208 O.3     1  UNL1       -0.3867
     26 C         141.7607  143.5046  162.0497 C.3     1  UNL1        0.0269
     27 C         142.9094  142.5913  162.3605 C.3     1  UNL1        0.0024
     28 C         143.9507  143.0082  163.3565 C.3     1  UNL1        0.0002
     29 C         143.8432  144.3383  164.0417 C.3     1  UNL1        0.0024
     30 C         142.6945  145.2514  163.7309 C.3     1  UNL1        0.0269
     31 H         140.3029  146.3597  162.6288 H       1  UNL1        0.2102
@<TRIPOS>BOND
     1    19    20    1
     2     1    20    1
     3     1     7    1
     4     7     8   ar
     5     8     9   ar
     6     9    10   ar
     7    10    11   ar
     8    11    13    1
     9    13    15    1
    10    15    16    1
    11    15    17    2
    12    15    18    2
    13    11    12   ar
    14     1     2    1
    15     2     3    1
    16     3     4    1
    17     4    21    1
    18    21    22    1
    19    22    23    1
    20    23    24    1
    21    24    25    1
    22    24    26    1
    23    26    27    1
    24    27    28    1
    25    28    29    1
    26    29    30    1
    27     4     5    1
    28     6     5    1
    29     6     1    1
    30    12     7   ar
    31     6     2    1
    32    30    24    1
    33    13    14    1
    34    25    31    1
@<TRIPOS>MOLECULE
*****
 31 34 0 0 0
SMALL
GASTEIGER

@<TRIPOS>ATOM
      1 C         143.1698  141.4809  164.5034 C.3     1  UNL1        0.0216
      2 C         141.9112  140.9236  163.9073 C.3     1  UNL1        0.0214
      3 C         140.7638  140.4885  163.0446 C.3     1  UNL1        0.0724
      4 N         141.0326  140.9565  161.6450 N.3     1  UNL1       -0.2727
      5 C         142.3462  141.6808  161.6427 C.3     1  UNL1        0.0724
      6 C         142.8891  141.6605  163.0408 C.3     1  UNL1        0.0214
      7 C         142.9918  141.0567  165.9311 C.ar    1  UNL1       -0.0214
      8 C         143.0198  139.6005  166.2899 C.ar    1  UNL1       -0.0042
      9 C         142.8418  139.1763  167.7175 C.ar    1  UNL1        0.0010
     10 C         142.6359  140.2082  168.7865 C.ar    1  UNL1        0.0158
     11 C         142.6078  141.6644  168.4278 C.ar    1  UNL1        0.0641
     12 C         142.7858  142.0886  167.0001 C.ar    1  UNL1        0.0116
     13 N         142.4018  142.6963  169.4967 N.pl3   1  UNL1       -0.2187
     14 H         143.1419  143.2921  169.7549 H       1  UNL1        0.1734
     15 S         141.0684  142.8205  170.1723 S.O2    1  UNL1        0.0558
     16 C         139.7349  142.9448  170.8479 C.3     1  UNL1        0.1996
     17 O         140.4733  143.3483  168.9006 O.2     1  UNL1       -0.1544
     18 O         141.6635  142.2928  171.4440 O.2     1  UNL1       -0.1544
     19 C         145.7007  141.6096  163.9307 C.3     1  UNL1        0.0003
     20 C         144.4902  142.1856  164.6037 C.3     1  UNL1        0.0041
     21 C         140.1439  140.7383  160.4565 C.3     1  UNL1        0.0722
     22 C         138.7132  141.1872  160.4975 C.3     1  UNL1        0.0197
     23 C         138.3777  142.5850  160.9263 C.3     1  UNL1        0.0283
     24 C         138.1493  142.8899  162.3771 C.3     1  UNL1        0.0884
     25 O         137.2195  141.7253  162.2062 O.3     1  UNL1       -0.3867
     26 C         139.1583  143.9486  162.0441 C.3     1  UNL1        0.0269
     27 C         139.6161  144.9079  163.1026 C.3     1  UNL1        0.0024
     28 C         139.0648  144.8084  164.4940 C.3     1  UNL1        0.0002
     29 C         138.0557  143.7496  164.8270 C.3     1  UNL1        0.0024
     30 C         137.5979  142.7904  163.7685 C.3     1  UNL1        0.0269
     31 H         137.2605  141.4106  161.2896 H       1  UNL1        0.2102
@<TRIPOS>BOND
     1    19    20    1
     2     1    20    1
     3     1     7    1
     4     7     8   ar
     5     8     9   ar
     6     9    10   ar
     7    10    11   ar
     8    11    13    1
     9    13    15    1
    10    15    16    1
    11    15    17    2
    12    15    18    2
    13    11    12   ar
    14     1     2    1
    15     2     3    1
    16     3     4    1
    17     4    21    1
    18    21    22    1
    19    22    23    1
    20    23    24    1
    21    24    25    1
    22    24    26    1
    23    26    27    1
    24    27    28    1
    25    28    29    1
    26    29    30    1
    27     4     5    1
    28     6     5    1
    29     6     1    1
    30    12     7   ar
    31     6     2    1
    32    30    24    1
    33    13    14    1
    34    25    31    1
@<TRIPOS>MOLECULE
*****
 31 34 0 0 0
SMALL
GASTEIGER

@<TRIPOS>ATOM
      1 C         141.3793  140.9289  165.1492 C.3     1  UNL1        0.0216
      2 C         140.6605  141.2797  163.8802 C.3     1  UNL1        0.0214
      3 C         140.2158  141.7598  162.5305 C.3     1  UNL1        0.0724
      4 N         141.3763  142.4519  161.8791 N.3     1  UNL1       -0.2727
      5 C         142.5383  142.3995  162.8263 C.3     1  UNL1        0.0724
      6 C         142.0959  141.6751  164.0630 C.3     1  UNL1        0.0214
      7 C         140.2804  140.2190  165.8832 C.ar    1  UNL1       -0.0214
      8 C         139.3540  139.3016  165.1417 C.ar    1  UNL1       -0.0042
      9 C         138.2552  138.5917  165.8757 C.ar    1  UNL1        0.0010
     10 C         138.0829  138.7994  167.3512 C.ar    1  UNL1        0.0158
     11 C         139.0093  139.7168  168.0927 C.ar    1  UNL1        0.0641
     12 C         140.1081  140.4267  167.3587 C.ar    1  UNL1        0.0116
     13 N         138.8370  139.9245  169.5683 N.pl3   1  UNL1       -0.2187
     14 H         138.0046  139.6415  170.0113 H       1  UNL1        0.1734
     15 S         139.9329  140.5632  170.3688 S.O2    1  UNL1        0.0558
     16 C         141.0288  141.2021  171.1694 C.3     1  UNL1        0.1996
     17 O         139.1405  141.8349  170.4388 O.2     1  UNL1       -0.1544
     18 O         140.7253  139.2916  170.2988 O.2     1  UNL1       -0.1544
     19 C         143.2366  142.0517  166.5774 C.3     1  UNL1        0.0003
     20 C         142.4796  140.8247  166.1633 C.3     1  UNL1        0.0041
     21 C         141.3750  143.0851  160.5194 C.3     1  UNL1        0.0722
     22 C         140.4323  144.2123  160.2180 C.3     1  UNL1        0.0197
     23 C         140.3473  145.3876  161.1464 C.3     1  UNL1        0.0283
     24 C         140.1381  145.1691  162.6155 C.3     1  UNL1        0.0884
     25 O         141.5644  145.6334  162.6217 O.3     1  UNL1       -0.3867
     26 C         138.7845  144.7807  162.0990 C.3     1  UNL1        0.0269
     27 C         137.7169  144.3351  163.0539 C.3     1  UNL1        0.0024
     28 C         138.0030  144.2779  164.5253 C.3     1  UNL1        0.0002
     29 C         139.3568  144.6663  165.0417 C.3     1  UNL1        0.0024
     30 C         140.4243  145.1119  164.0868 C.3     1  UNL1        0.0269
     31 H         141.8481  145.8188  161.7129 H       1  UNL1        0.2102
@<TRIPOS>BOND
     1    19    20    1
     2     1    20    1
     3     1     7    1
     4     7     8   ar
     5     8     9   ar
     6     9    10   ar
     7    10    11   ar
     8    11    13    1
     9    13    15    1
    10    15    16    1
    11    15    17    2
    12    15    18    2
    13    11    12   ar
    14     1     2    1
    15     2     3    1
    16     3     4    1
    17     4    21    1
    18    21    22    1
    19    22    23    1
    20    23    24    1
    21    24    25    1
    22    24    26    1
    23    26    27    1
    24    27    28    1
    25    28    29    1
    26    29    30    1
    27     4     5    1
    28     6     5    1
    29     6     1    1
    30    12     7   ar
    31     6     2    1
    32    30    24    1
    33    13    14    1
    34    25    31    1
@<TRIPOS>MOLECULE
*****
 31 34 0 0 0
SMALL
GASTEIGER

@<TRIPOS>ATOM
      1 C         140.2324  140.2527  164.6661 C.3     1  UNL1        0.0216
      2 C         141.2137  141.0964  163.9077 C.3     1  UNL1        0.0214
      3 C         141.9677  141.9520  162.9334 C.3     1  UNL1        0.0724
      4 N         141.0863  142.1852  161.7423 N.3     1  UNL1       -0.2727
      5 C         139.7874  141.4737  161.9804 C.3     1  UNL1        0.0724
      6 C         139.8661  140.8008  163.3187 C.3     1  UNL1        0.0214
      7 C         141.0365  139.9626  165.8988 C.ar    1  UNL1       -0.0214
      8 C         142.2701  139.1143  165.8071 C.ar    1  UNL1       -0.0042
      9 C         143.0741  138.8243  167.0397 C.ar    1  UNL1        0.0010
     10 C         142.6444  139.3825  168.3640 C.ar    1  UNL1        0.0158
     11 C         141.4108  140.2307  168.4557 C.ar    1  UNL1        0.0641
     12 C         140.6068  140.5208  167.2231 C.ar    1  UNL1        0.0116
     13 N         140.9811  140.7889  169.7800 N.pl3   1  UNL1       -0.2187
     14 H         140.9271  140.2010  170.5679 H       1  UNL1        0.1734
     15 S         140.6336  142.2428  169.9040 S.O2    1  UNL1        0.0558
     16 C         140.2861  143.6968  170.0279 C.3     1  UNL1        0.1996
     17 O         142.0083  142.6117  169.4306 O.2     1  UNL1       -0.1544
     18 O         139.2589  141.8739  170.3773 O.2     1  UNL1       -0.1544
     19 C         138.9510  138.0105  164.9503 C.3     1  UNL1        0.0003
     20 C         138.9719  139.5097  164.9965 C.3     1  UNL1        0.0041
     21 C         141.4414  142.9888  160.5265 C.3     1  UNL1        0.0722
     22 C         141.4731  144.4867  160.6006 C.3     1  UNL1        0.0197
     23 C         140.3740  145.2262  161.3043 C.3     1  UNL1        0.0283
     24 C         140.1377  145.0029  162.7686 C.3     1  UNL1        0.0884
     25 O         141.5786  145.4186  162.7978 O.3     1  UNL1       -0.3867
     26 C         138.7788  144.6648  162.2310 C.3     1  UNL1        0.0269
     27 C         137.6840  144.2476  163.1678 C.3     1  UNL1        0.0024
     28 C         137.9482  144.1687  164.6422 C.3     1  UNL1        0.0002
     29 C         139.3071  144.5069  165.1799 C.3     1  UNL1        0.0024
     30 C         140.4018  144.9240  164.2431 C.3     1  UNL1        0.0269
     31 H         141.8806  145.6018  161.8944 H       1  UNL1        0.2102
@<TRIPOS>BOND
     1    19    20    1
     2     1    20    1
     3     1     7    1
     4     7     8   ar
     5     8     9   ar
     6     9    10   ar
     7    10    11   ar
     8    11    13    1
     9    13    15    1
    10    15    16    1
    11    15    17    2
    12    15    18    2
    13    11    12   ar
    14     1     2    1
    15     2     3    1
    16     3     4    1
    17     4    21    1
    18    21    22    1
    19    22    23    1
    20    23    24    1
    21    24    25    1
    22    24    26    1
    23    26    27    1
    24    27    28    1
    25    28    29    1
    26    29    30    1
    27     4     5    1
    28     6     5    1
    29     6     1    1
    30    12     7   ar
    31     6     2    1
    32    30    24    1
    33    13    14    1
    34    25    31    1
