@<TRIPOS>MOLECULE
*****
 31 34 0 0 0
SMALL
GASTEIGER

@<TRIPOS>ATOM
      1 C         141.5285  141.1697  164.3380 C.ar    1  UNL1        0.1680
      2 C         141.5234  140.8524  162.8720 C.ar    1  UNL1        0.0408
      3 C         141.5231  141.9633  161.8642 C.ar    1  UNL1        0.0258
      4 C         141.5279  143.3916  162.3224 C.ar    1  UNL1        0.1549
      5 C         141.5330  143.7090  163.7884 C.ar    1  UNL1        0.1891
      6 F         141.5377  145.1373  164.2466 F       1  UNL1       -0.2003
      7 C         141.5333  142.5980  164.7962 C.ar    1  UNL1        0.2024
      8 F         141.5383  142.9153  166.2623 F       1  UNL1       -0.1985
      9 S         141.5276  144.5026  161.3145 S.O2    1  UNL1        0.0769
     10 O         140.1189  144.8488  161.6964 O.2     1  UNL1       -0.1498
     11 O         142.9362  144.1565  160.9326 O.2     1  UNL1       -0.1498
     12 N         141.5273  145.6136  160.3066 N.pl3   1  UNL1       -0.1987
     13 H         141.6435  146.5457  160.6015 H       1  UNL1        0.1753
     14 C         141.3501  145.3043  158.8496 C.ar    1  UNL1        0.1503
     15 C         140.2826  144.3463  158.4107 C.ar    1  UNL1        0.0563
     16 C         140.1054  144.0370  156.9536 C.ar    1  UNL1        0.1036
     17 N         140.9956  144.6859  155.9355 N.ar    1  UNL1       -0.2223
     18 C         142.0631  145.6439  156.3745 C.ar    1  UNL1        0.2001
     19 N         142.2403  145.9532  157.8315 N.ar    1  UNL1       -0.2077
     20 O         141.5288  140.0587  165.3459 O.3     1  UNL1       -0.4764
     21 C         138.9788  139.3133  165.6402 C.3     1  UNL1        0.0799
     22 C         138.0410  139.1771  166.8030 C.3     1  UNL1        0.0096
     23 C         138.7841  139.5681  168.0460 C.3     1  UNL1        0.0042
     24 C         140.1810  139.9460  167.6515 C.3     1  UNL1        0.0439
     25 C         140.3014  139.7885  166.1646 C.3     1  UNL1        0.1714
     26 C         137.6538  141.4075  163.5169 C.3     1  UNL1        0.1533
     27 N         138.0424  139.9875  163.2291 N.ar    1  UNL1       -0.2527
     28 N         137.8902  139.2808  161.9148 N.ar    1  UNL1       -0.1679
     29 C         138.4051  137.8816  162.0784 C.ar    1  UNL1        0.1213
     30 C         138.8756  137.7234  163.4940 C.ar    1  UNL1        0.0369
     31 C         138.6514  139.0250  164.2051 C.ar    1  UNL1        0.0603
@<TRIPOS>BOND
     1    26    27    1
     2    27    28   ar
     3    28    29   ar
     4    29    30   ar
     5    30    31   ar
     6    21    31    1
     7    21    22    1
     8    22    23    1
     9    23    24    1
    10    24    25    1
    11    25    20    1
    12    20     1    1
    13     1     2   ar
    14     2     3   ar
    15     3     4   ar
    16     4     9    1
    17     9    10    2
    18     9    11    2
    19     9    12    1
    20    12    14    1
    21    14    15   ar
    22    15    16   ar
    23    16    17   ar
    24    17    18   ar
    25    18    19   ar
    26     4     5   ar
    27     5     6    1
    28     5     7   ar
    29     7     8    1
    30    31    27   ar
    31    25    21    1
    32     7     1   ar
    33    19    14   ar
    34    12    13    1
@<TRIPOS>MOLECULE
*****
 31 34 0 0 0
SMALL
GASTEIGER

@<TRIPOS>ATOM
      1 C         141.4637  141.2891  164.6801 C.ar    1  UNL1        0.1680
      2 C         141.8967  140.9309  163.2894 C.ar    1  UNL1        0.0408
      3 C         141.9378  141.9840  162.2220 C.ar    1  UNL1        0.0258
      4 C         141.5458  143.3953  162.5454 C.ar    1  UNL1        0.1549
      5 C         141.1128  143.7535  163.9361 C.ar    1  UNL1        0.1891
      6 F         140.7209  145.1649  164.2594 F       1  UNL1       -0.2003
      7 C         141.0718  142.7005  165.0034 C.ar    1  UNL1        0.2024
      8 F         140.6388  143.0587  166.3943 F       1  UNL1       -0.1985
      9 S         141.5869  144.4484  161.4779 S.O2    1  UNL1        0.0769
     10 O         143.0651  144.5988  161.6831 O.2     1  UNL1       -0.1498
     11 O         140.1087  144.2980  161.2727 O.2     1  UNL1       -0.1498
     12 N         141.6279  145.5014  160.4105 N.pl3   1  UNL1       -0.1987
     13 H         141.8077  146.4391  160.6507 H       1  UNL1        0.1753
     14 C         141.3950  145.1259  158.9771 C.ar    1  UNL1        0.1503
     15 C         142.2595  144.0887  158.3236 C.ar    1  UNL1        0.0563
     16 C         142.0266  143.7131  156.8901 C.ar    1  UNL1        0.1036
     17 N         140.9292  144.3747  156.1102 N.ar    1  UNL1       -0.2223
     18 C         140.0648  145.4119  156.7638 C.ar    1  UNL1        0.2001
     19 N         140.2977  145.7874  158.1972 N.ar    1  UNL1       -0.2077
     20 O         141.4226  140.2360  165.7475 O.3     1  UNL1       -0.4764
     21 C         139.0694  138.9965  165.4823 C.3     1  UNL1        0.0799
     22 C         137.9139  138.7077  166.3941 C.3     1  UNL1        0.0096
     23 C         138.2341  139.2795  167.7435 C.3     1  UNL1        0.0042
     24 C         139.5875  139.9216  167.6654 C.3     1  UNL1        0.0439
     25 C         140.1037  139.7467  166.2680 C.3     1  UNL1        0.1714
     26 C         141.2958  136.9877  164.1946 C.3     1  UNL1        0.1533
     27 N         140.1957  137.6806  163.4464 N.ar    1  UNL1       -0.2527
     28 N         139.9259  137.5718  161.9748 N.ar    1  UNL1       -0.1679
     29 C         138.7358  138.4279  161.6572 C.ar    1  UNL1        0.1213
     30 C         138.2701  139.0657  162.9325 C.ar    1  UNL1        0.0369
     31 C         139.1724  138.6039  164.0382 C.ar    1  UNL1        0.0603
@<TRIPOS>BOND
     1    26    27    1
     2    27    28   ar
     3    28    29   ar
     4    29    30   ar
     5    30    31   ar
     6    21    31    1
     7    21    22    1
     8    22    23    1
     9    23    24    1
    10    24    25    1
    11    25    20    1
    12    20     1    1
    13     1     2   ar
    14     2     3   ar
    15     3     4   ar
    16     4     9    1
    17     9    10    2
    18     9    11    2
    19     9    12    1
    20    12    14    1
    21    14    15   ar
    22    15    16   ar
    23    16    17   ar
    24    17    18   ar
    25    18    19   ar
    26     4     5   ar
    27     5     6    1
    28     5     7   ar
    29     7     8    1
    30    31    27   ar
    31    25    21    1
    32     7     1   ar
    33    19    14   ar
    34    12    13    1
@<TRIPOS>MOLECULE
*****
 31 34 0 0 0
SMALL
GASTEIGER

@<TRIPOS>ATOM
      1 C         141.5553  141.2317  164.6525 C.ar    1  UNL1        0.1680
      2 C         140.8755  141.0207  163.3322 C.ar    1  UNL1        0.0408
      3 C         140.8657  142.1182  162.3098 C.ar    1  UNL1        0.0258
      4 C         141.5358  143.4268  162.6077 C.ar    1  UNL1        0.1549
      5 C         142.2156  143.6378  163.9281 C.ar    1  UNL1        0.1891
      6 F         142.8857  144.9463  164.2260 F       1  UNL1       -0.2003
      7 C         142.2254  142.5402  164.9504 C.ar    1  UNL1        0.2024
      8 F         142.9052  142.7512  166.2708 F       1  UNL1       -0.1985
      9 S         141.5261  144.5243  161.5853 S.O2    1  UNL1        0.0769
     10 O         142.8746  144.0832  161.0988 O.2     1  UNL1       -0.1498
     11 O         140.1775  144.9655  162.0717 O.2     1  UNL1       -0.1498
     12 N         141.5163  145.6218  160.5629 N.pl3   1  UNL1       -0.1987
     13 H         141.6500  146.5563  160.8425 H       1  UNL1        0.1753
     14 C         141.3027  145.2957  159.1144 C.ar    1  UNL1        0.1503
     15 C         140.1892  144.3759  158.7090 C.ar    1  UNL1        0.0563
     16 C         139.9756  144.0498  157.2606 C.ar    1  UNL1        0.1036
     17 N         140.8755  144.6433  156.2175 N.ar    1  UNL1       -0.2223
     18 C         141.9889  145.5630  156.6229 C.ar    1  UNL1        0.2001
     19 N         142.2025  145.8892  158.0714 N.ar    1  UNL1       -0.2077
     20 O         141.5650  140.1342  165.6749 O.3     1  UNL1       -0.4764
     21 C         139.8925  140.2244  167.7580 C.3     1  UNL1        0.0799
     22 C         138.5601  139.6131  168.0757 C.3     1  UNL1        0.0096
     23 C         138.1435  138.7746  166.9038 C.3     1  UNL1        0.0042
     24 C         139.2185  138.8678  165.8618 C.3     1  UNL1        0.0439
     25 C         140.2994  139.7638  166.3898 C.3     1  UNL1        0.1714
     26 C         142.1910  139.3095  169.8864 C.3     1  UNL1        0.1533
     27 N         141.7362  140.7158  169.6300 N.ar    1  UNL1       -0.2527
     28 N         142.2581  141.9484  170.3070 N.ar    1  UNL1       -0.1679
     29 C         141.5242  143.1307  169.7471 C.ar    1  UNL1        0.1213
     30 C         140.5487  142.6288  168.7241 C.ar    1  UNL1        0.0369
     31 C         140.6798  141.1363  168.6518 C.ar    1  UNL1        0.0603
@<TRIPOS>BOND
     1    26    27    1
     2    27    28   ar
     3    28    29   ar
     4    29    30   ar
     5    30    31   ar
     6    21    31    1
     7    21    22    1
     8    22    23    1
     9    23    24    1
    10    24    25    1
    11    25    20    1
    12    20     1    1
    13     1     2   ar
    14     2     3   ar
    15     3     4   ar
    16     4     9    1
    17     9    10    2
    18     9    11    2
    19     9    12    1
    20    12    14    1
    21    14    15   ar
    22    15    16   ar
    23    16    17   ar
    24    17    18   ar
    25    18    19   ar
    26     4     5   ar
    27     5     6    1
    28     5     7   ar
    29     7     8    1
    30    31    27   ar
    31    25    21    1
    32     7     1   ar
    33    19    14   ar
    34    12    13    1
@<TRIPOS>MOLECULE
*****
 31 34 0 0 0
SMALL
GASTEIGER

@<TRIPOS>ATOM
      1 C         142.5873  141.1074  164.7092 C.ar    1  UNL1        0.1680
      2 C         141.8823  140.8097  163.4192 C.ar    1  UNL1        0.0408
      3 C         141.6436  141.9067  162.4245 C.ar    1  UNL1        0.0258
      4 C         142.1099  143.3015  162.7198 C.ar    1  UNL1        0.1549
      5 C         142.8149  143.5992  164.0099 C.ar    1  UNL1        0.1891
      6 F         143.2812  144.9939  164.3052 F       1  UNL1       -0.2003
      7 C         143.0536  142.5022  165.0046 C.ar    1  UNL1        0.2024
      8 F         143.7586  142.7998  166.2947 F       1  UNL1       -0.1985
      9 S         141.8711  144.3986  161.7250 S.O2    1  UNL1        0.0769
     10 O         140.6015  144.7656  162.4344 O.2     1  UNL1       -0.1498
     11 O         143.1408  144.0315  161.0157 O.2     1  UNL1       -0.1498
     12 N         141.6325  145.4955  160.7303 N.pl3   1  UNL1       -0.1987
     13 H         141.6716  146.4367  161.0165 H       1  UNL1        0.1753
     14 C         141.3342  145.1586  159.2994 C.ar    1  UNL1        0.1503
     15 C         140.2462  144.1797  158.9705 C.ar    1  UNL1        0.0563
     16 C         139.9479  143.8428  157.5396 C.ar    1  UNL1        0.1036
     17 N         140.7376  144.4848  156.4376 N.ar    1  UNL1       -0.2223
     18 C         141.8255  145.4637  156.7665 C.ar    1  UNL1        0.2001
     19 N         142.1238  145.8006  158.1974 N.ar    1  UNL1       -0.2077
     20 O         142.8260  140.0103  165.7040 O.3     1  UNL1       -0.4764
     21 C         140.5979  140.2404  167.1627 C.3     1  UNL1        0.0799
     22 C         140.2689  140.1267  168.6217 C.3     1  UNL1        0.0096
     23 C         141.5361  139.8099  169.3593 C.3     1  UNL1        0.0042
     24 C         142.6482  139.7277  168.3561 C.3     1  UNL1        0.0439
     25 C         142.0684  139.9938  166.9985 C.3     1  UNL1        0.1714
     26 C         139.7796  143.2153  166.0996 C.3     1  UNL1        0.1533
     27 N         139.2508  141.9142  165.5726 N.ar    1  UNL1       -0.2527
     28 N         138.2530  141.7522  164.4643 N.ar    1  UNL1       -0.1679
     29 C         138.0124  140.2847  164.2680 C.ar    1  UNL1        0.1213
     30 C         138.8616  139.5397  165.2550 C.ar    1  UNL1        0.0369
     31 C         139.6269  140.5469  166.0612 C.ar    1  UNL1        0.0603
@<TRIPOS>BOND
     1    26    27    1
     2    27    28   ar
     3    28    29   ar
     4    29    30   ar
     5    30    31   ar
     6    21    31    1
     7    21    22    1
     8    22    23    1
     9    23    24    1
    10    24    25    1
    11    25    20    1
    12    20     1    1
    13     1     2   ar
    14     2     3   ar
    15     3     4   ar
    16     4     9    1
    17     9    10    2
    18     9    11    2
    19     9    12    1
    20    12    14    1
    21    14    15   ar
    22    15    16   ar
    23    16    17   ar
    24    17    18   ar
    25    18    19   ar
    26     4     5   ar
    27     5     6    1
    28     5     7   ar
    29     7     8    1
    30    31    27   ar
    31    25    21    1
    32     7     1   ar
    33    19    14   ar
    34    12    13    1
@<TRIPOS>MOLECULE
*****
 31 34 0 0 0
SMALL
GASTEIGER

@<TRIPOS>ATOM
      1 C         139.3472  139.9158  166.5623 C.ar    1  UNL1        0.1680
      2 C         139.5314  141.3718  166.2524 C.ar    1  UNL1        0.0408
      3 C         139.2445  141.8872  164.8733 C.ar    1  UNL1        0.0258
      4 C         138.7734  140.9466  163.8040 C.ar    1  UNL1        0.1549
      5 C         138.5891  139.4906  164.1139 C.ar    1  UNL1        0.1891
      6 F         138.1180  138.5500  163.0447 F       1  UNL1       -0.2003
      7 C         138.8760  138.9752  165.4930 C.ar    1  UNL1        0.2024
      8 F         138.6918  137.5191  165.8030 F       1  UNL1       -0.1985
      9 S         138.4865  141.4621  162.4249 S.O2    1  UNL1        0.0769
     10 O         137.1268  141.9081  162.8744 O.2     1  UNL1       -0.1498
     11 O         139.8463  141.0160  161.9754 O.2     1  UNL1       -0.1498
     12 N         138.1997  141.9775  161.0458 N.pl3   1  UNL1       -0.1987
     13 H         137.5041  141.5503  160.4954 H       1  UNL1        0.1753
     14 C         138.9726  143.1439  160.5052 C.ar    1  UNL1        0.1503
     15 C         139.4158  143.1505  159.0721 C.ar    1  UNL1        0.0563
     16 C         140.1887  144.3169  158.5315 C.ar    1  UNL1        0.1036
     17 N         140.5185  145.4766  159.4240 N.ar    1  UNL1       -0.2223
     18 C         140.0753  145.4698  160.8570 C.ar    1  UNL1        0.2001
     19 N         139.3024  144.3035  161.3976 N.ar    1  UNL1       -0.2077
     20 O         139.6340  139.4003  167.9415 O.3     1  UNL1       -0.4764
     21 C         142.1299  140.2792  168.3199 C.3     1  UNL1        0.0799
     22 C         142.8681  140.9185  169.4584 C.3     1  UNL1        0.0096
     23 C         141.9144  141.0608  170.6075 C.3     1  UNL1        0.0042
     24 C         140.5869  140.5094  170.1791 C.3     1  UNL1        0.0439
     25 C         140.7200  140.0263  168.7653 C.3     1  UNL1        0.1714
     26 C         143.1450  142.4340  166.0891 C.3     1  UNL1        0.1533
     27 N         143.1679  140.9408  165.9472 N.ar    1  UNL1       -0.2527
     28 N         143.6613  140.1760  164.7549 N.ar    1  UNL1       -0.1679
     29 C         143.4998  138.7129  165.0434 C.ar    1  UNL1        0.1213
     30 C         142.9064  138.5735  166.4140 C.ar    1  UNL1        0.0369
     31 C         142.7013  139.9504  166.9725 C.ar    1  UNL1        0.0603
@<TRIPOS>BOND
     1    26    27    1
     2    27    28   ar
     3    28    29   ar
     4    29    30   ar
     5    30    31   ar
     6    21    31    1
     7    21    22    1
     8    22    23    1
     9    23    24    1
    10    24    25    1
    11    25    20    1
    12    20     1    1
    13     1     2   ar
    14     2     3   ar
    15     3     4   ar
    16     4     9    1
    17     9    10    2
    18     9    11    2
    19     9    12    1
    20    12    14    1
    21    14    15   ar
    22    15    16   ar
    23    16    17   ar
    24    17    18   ar
    25    18    19   ar
    26     4     5   ar
    27     5     6    1
    28     5     7   ar
    29     7     8    1
    30    31    27   ar
    31    25    21    1
    32     7     1   ar
    33    19    14   ar
    34    12    13    1
@<TRIPOS>MOLECULE
*****
 31 34 0 0 0
SMALL
GASTEIGER

@<TRIPOS>ATOM
      1 C         139.5517  141.5314  165.4359 C.ar    1  UNL1        0.1680
      2 C         139.5933  142.9867  165.7969 C.ar    1  UNL1        0.0408
      3 C         139.9156  144.0104  164.7490 C.ar    1  UNL1        0.0258
      4 C         140.1963  143.5788  163.3401 C.ar    1  UNL1        0.1549
      5 C         140.1547  142.1235  162.9791 C.ar    1  UNL1        0.1891
      6 F         140.4354  141.6919  161.5702 F       1  UNL1       -0.2003
      7 C         139.8324  141.0998  164.0270 C.ar    1  UNL1        0.2024
      8 F         139.7908  139.6444  163.6661 F       1  UNL1       -0.1985
      9 S         140.5186  144.6026  162.2922 S.O2    1  UNL1        0.0769
     10 O         141.8900  144.7690  162.8765 O.2     1  UNL1       -0.1498
     11 O         139.1472  144.4362  161.7079 O.2     1  UNL1       -0.1498
     12 N         140.8408  145.6263  161.2443 N.pl3   1  UNL1       -0.1987
     13 H         140.7976  146.5852  161.4632 H       1  UNL1        0.1753
     14 C         141.2288  145.1891  159.8629 C.ar    1  UNL1        0.1503
     15 C         140.4558  145.6817  158.6755 C.ar    1  UNL1        0.0563
     16 C         140.8438  145.2445  157.2941 C.ar    1  UNL1        0.1036
     17 N         142.0049  144.3146  157.1001 N.ar    1  UNL1       -0.2223
     18 C         142.7778  143.8221  158.2875 C.ar    1  UNL1        0.2001
     19 N         142.3898  144.2593  159.6689 N.ar    1  UNL1       -0.2077
     20 O         139.2294  140.5076  166.4838 O.3     1  UNL1       -0.4764
     21 C         141.6468  139.8916  167.4440 C.3     1  UNL1        0.0799
     22 C         142.2312  139.7190  168.8146 C.3     1  UNL1        0.0096
     23 C         141.1431  139.9664  169.8171 C.3     1  UNL1        0.0042
     24 C         139.8862  140.2919  169.0659 C.3     1  UNL1        0.0439
     25 C         140.1975  140.2457  167.5993 C.3     1  UNL1        0.1714
     26 C         143.2665  142.2443  165.8656 C.3     1  UNL1        0.1533
     27 N         143.1270  140.8186  165.4205 N.ar    1  UNL1       -0.2527
     28 N         143.7075  140.2240  164.1717 N.ar    1  UNL1       -0.1679
     29 C         143.3218  138.7752  164.1253 C.ar    1  UNL1        0.1213
     30 C         142.5029  138.4744  165.3456 C.ar    1  UNL1        0.0369
     31 C         142.3825  139.7373  166.1460 C.ar    1  UNL1        0.0603
@<TRIPOS>BOND
     1    26    27    1
     2    27    28   ar
     3    28    29   ar
     4    29    30   ar
     5    30    31   ar
     6    21    31    1
     7    21    22    1
     8    22    23    1
     9    23    24    1
    10    24    25    1
    11    25    20    1
    12    20     1    1
    13     1     2   ar
    14     2     3   ar
    15     3     4   ar
    16     4     9    1
    17     9    10    2
    18     9    11    2
    19     9    12    1
    20    12    14    1
    21    14    15   ar
    22    15    16   ar
    23    16    17   ar
    24    17    18   ar
    25    18    19   ar
    26     4     5   ar
    27     5     6    1
    28     5     7   ar
    29     7     8    1
    30    31    27   ar
    31    25    21    1
    32     7     1   ar
    33    19    14   ar
    34    12    13    1
@<TRIPOS>MOLECULE
*****
 31 34 0 0 0
SMALL
GASTEIGER

@<TRIPOS>ATOM
      1 C         140.0819  141.4782  164.6694 C.ar    1  UNL1        0.1680
      2 C         140.0629  141.0959  163.2191 C.ar    1  UNL1        0.0408
      3 C         140.4270  142.1064  162.1722 C.ar    1  UNL1        0.0258
      4 C         140.8103  143.4994  162.5756 C.ar    1  UNL1        0.1549
      5 C         140.8293  143.8818  164.0259 C.ar    1  UNL1        0.1891
      6 F         141.2126  145.2748  164.4293 F       1  UNL1       -0.2003
      7 C         140.4652  142.8712  165.0728 C.ar    1  UNL1        0.2024
      8 F         140.4842  143.2536  166.5232 F       1  UNL1       -0.1985
      9 S         141.1745  144.5100  161.5286 S.O2    1  UNL1        0.0769
     10 O         142.5063  143.8439  161.3488 O.2     1  UNL1       -0.1498
     11 O         139.8426  145.1762  161.7085 O.2     1  UNL1       -0.1498
     12 N         141.5386  145.5206  160.4817 N.pl3   1  UNL1       -0.1987
     13 H         141.8971  146.3980  160.7481 H       1  UNL1        0.1753
     14 C         141.3564  145.1945  159.0290 C.ar    1  UNL1        0.1503
     15 C         140.3343  144.1795  158.6106 C.ar    1  UNL1        0.0563
     16 C         140.1521  143.8533  157.1579 C.ar    1  UNL1        0.1036
     17 N         140.9922  144.5422  156.1235 N.ar    1  UNL1       -0.2223
     18 C         142.0143  145.5572  156.5419 C.ar    1  UNL1        0.2001
     19 N         142.1964  145.8833  157.9946 N.ar    1  UNL1       -0.2077
     20 O         139.7178  140.4676  165.7164 O.3     1  UNL1       -0.4764
     21 C         142.0941  139.5597  166.5370 C.3     1  UNL1        0.0799
     22 C         142.7354  139.3223  167.8721 C.3     1  UNL1        0.0096
     23 C         141.7499  139.7083  168.9350 C.3     1  UNL1        0.0042
     24 C         140.4995  140.1844  168.2568 C.3     1  UNL1        0.0439
     25 C         140.7122  140.0925  166.7748 C.3     1  UNL1        0.1714
     26 C         141.1969  137.2676  164.3944 C.3     1  UNL1        0.1533
     27 N         142.3118  138.2550  164.2143 N.ar    1  UNL1       -0.2527
     28 N         143.2099  138.3621  163.0177 N.ar    1  UNL1       -0.1679
     29 C         144.1774  139.4818  163.2630 C.ar    1  UNL1        0.1213
     30 C         143.8771  140.0667  164.6112 C.ar    1  UNL1        0.0369
     31 C         142.7241  139.3085  165.1991 C.ar    1  UNL1        0.0603
@<TRIPOS>BOND
     1    26    27    1
     2    27    28   ar
     3    28    29   ar
     4    29    30   ar
     5    30    31   ar
     6    21    31    1
     7    21    22    1
     8    22    23    1
     9    23    24    1
    10    24    25    1
    11    25    20    1
    12    20     1    1
    13     1     2   ar
    14     2     3   ar
    15     3     4   ar
    16     4     9    1
    17     9    10    2
    18     9    11    2
    19     9    12    1
    20    12    14    1
    21    14    15   ar
    22    15    16   ar
    23    16    17   ar
    24    17    18   ar
    25    18    19   ar
    26     4     5   ar
    27     5     6    1
    28     5     7   ar
    29     7     8    1
    30    31    27   ar
    31    25    21    1
    32     7     1   ar
    33    19    14   ar
    34    12    13    1
@<TRIPOS>MOLECULE
*****
 31 34 0 0 0
SMALL
GASTEIGER

@<TRIPOS>ATOM
      1 C         140.2483  142.7642  165.0026 C.ar    1  UNL1        0.1680
      2 C         140.2531  144.2614  164.9116 C.ar    1  UNL1        0.0408
      3 C         140.5776  144.9326  163.6101 C.ar    1  UNL1        0.0258
      4 C         140.8973  144.1067  162.3995 C.ar    1  UNL1        0.1549
      5 C         140.8925  142.6095  162.4904 C.ar    1  UNL1        0.1891
      6 F         141.2123  141.7836  161.2798 F       1  UNL1       -0.2003
      7 C         140.5681  141.9382  163.7919 C.ar    1  UNL1        0.2024
      8 F         140.5633  140.4410  163.8829 F       1  UNL1       -0.1985
      9 S         141.2218  144.7781  161.0979 S.O2    1  UNL1        0.0769
     10 O         142.6863  144.6372  161.3903 O.2     1  UNL1       -0.1498
     11 O         139.7574  144.9189  160.8055 O.2     1  UNL1       -0.1498
     12 N         141.5463  145.4494  159.7964 N.pl3   1  UNL1       -0.1987
     13 H         141.6295  146.4295  159.7553 H       1  UNL1        0.1753
     14 C         141.7439  144.6274  158.5573 C.ar    1  UNL1        0.1503
     15 C         140.6476  144.5319  157.5379 C.ar    1  UNL1        0.0563
     16 C         140.8452  143.7099  156.2988 C.ar    1  UNL1        0.1036
     17 N         142.1391  142.9835  156.0791 N.ar    1  UNL1       -0.2223
     18 C         143.2353  143.0790  157.0985 C.ar    1  UNL1        0.2001
     19 N         143.0377  143.9010  158.3376 N.ar    1  UNL1       -0.2077
     20 O         139.9238  142.0928  166.3042 O.3     1  UNL1       -0.4764
     21 C         142.3204  142.2051  167.4825 C.3     1  UNL1        0.0799
     22 C         142.8047  142.4570  168.8796 C.3     1  UNL1        0.0096
     23 C         141.6059  142.6896  169.7508 C.3     1  UNL1        0.0042
     24 C         140.3809  142.5815  168.8921 C.3     1  UNL1        0.0439
     25 C         140.8224  142.2821  167.4901 C.3     1  UNL1        0.1714
     26 C         142.8013  139.2860  166.1051 C.3     1  UNL1        0.1533
     27 N         143.4039  140.5836  165.6544 N.ar    1  UNL1       -0.2527
     28 N         144.3333  140.7673  164.4914 N.ar    1  UNL1       -0.1679
     29 C         144.6866  142.2226  164.4057 C.ar    1  UNL1        0.1213
     30 C         143.9756  142.9383  165.5158 C.ar    1  UNL1        0.0369
     31 C         143.1828  141.9254  166.2875 C.ar    1  UNL1        0.0603
@<TRIPOS>BOND
     1    26    27    1
     2    27    28   ar
     3    28    29   ar
     4    29    30   ar
     5    30    31   ar
     6    21    31    1
     7    21    22    1
     8    22    23    1
     9    23    24    1
    10    24    25    1
    11    25    20    1
    12    20     1    1
    13     1     2   ar
    14     2     3   ar
    15     3     4   ar
    16     4     9    1
    17     9    10    2
    18     9    11    2
    19     9    12    1
    20    12    14    1
    21    14    15   ar
    22    15    16   ar
    23    16    17   ar
    24    17    18   ar
    25    18    19   ar
    26     4     5   ar
    27     5     6    1
    28     5     7   ar
    29     7     8    1
    30    31    27   ar
    31    25    21    1
    32     7     1   ar
    33    19    14   ar
    34    12    13    1
@<TRIPOS>MOLECULE
*****
 31 34 0 0 0
SMALL
GASTEIGER

@<TRIPOS>ATOM
      1 C         139.8400  142.2764  164.5535 C.ar    1  UNL1        0.1680
      2 C         140.2752  143.6953  164.7707 C.ar    1  UNL1        0.0408
      3 C         140.7079  144.5339  163.6048 C.ar    1  UNL1        0.0258
      4 C         140.7053  143.9536  162.2216 C.ar    1  UNL1        0.1549
      5 C         140.2701  142.5347  162.0044 C.ar    1  UNL1        0.1891
      6 F         140.2675  141.9543  160.6212 F       1  UNL1       -0.2003
      7 C         139.8374  141.6961  163.1703 C.ar    1  UNL1        0.2024
      8 F         139.4021  140.2771  162.9532 F       1  UNL1       -0.1985
      9 S         141.1380  144.7922  161.0556 S.O2    1  UNL1        0.0769
     10 O         139.7024  145.0798  160.7296 O.2     1  UNL1       -0.1498
     11 O         142.5736  144.5046  161.3815 O.2     1  UNL1       -0.1498
     12 N         141.5707  145.6308  159.8896 N.pl3   1  UNL1       -0.1987
     13 H         142.0616  146.4704  160.0424 H       1  UNL1        0.1753
     14 C         141.2556  145.1902  158.4909 C.ar    1  UNL1        0.1503
     15 C         141.6839  143.8327  158.0177 C.ar    1  UNL1        0.0563
     16 C         141.3688  143.3921  156.6189 C.ar    1  UNL1        0.1036
     17 N         140.6253  144.3090  155.6933 N.ar    1  UNL1       -0.2223
     18 C         140.1970  145.6664  156.1665 C.ar    1  UNL1        0.2001
     19 N         140.5122  146.1070  157.5653 N.ar    1  UNL1       -0.2077
     20 O         139.4073  141.4378  165.7195 O.3     1  UNL1       -0.4764
     21 C         141.3970  139.7986  166.4258 C.3     1  UNL1        0.0799
     22 C         142.2263  139.6078  167.6610 C.3     1  UNL1        0.0096
     23 C         141.7694  140.6047  168.6846 C.3     1  UNL1        0.0042
     24 C         140.6578  141.4115  168.0818 C.3     1  UNL1        0.0439
     25 C         140.4276  140.9133  166.6858 C.3     1  UNL1        0.1714
     26 C         143.3196  140.5296  163.8922 C.3     1  UNL1        0.1533
     27 N         142.3999  139.3486  163.9892 N.ar    1  UNL1       -0.2527
     28 N         142.2025  138.2962  162.9387 N.ar    1  UNL1       -0.1679
     29 C         141.1968  137.3098  163.4540 C.ar    1  UNL1        0.1213
     30 C         140.7726  137.7526  164.8230 C.ar    1  UNL1        0.0369
     31 C         141.5162  139.0126  165.1538 C.ar    1  UNL1        0.0603
@<TRIPOS>BOND
     1    26    27    1
     2    27    28   ar
     3    28    29   ar
     4    29    30   ar
     5    30    31   ar
     6    21    31    1
     7    21    22    1
     8    22    23    1
     9    23    24    1
    10    24    25    1
    11    25    20    1
    12    20     1    1
    13     1     2   ar
    14     2     3   ar
    15     3     4   ar
    16     4     9    1
    17     9    10    2
    18     9    11    2
    19     9    12    1
    20    12    14    1
    21    14    15   ar
    22    15    16   ar
    23    16    17   ar
    24    17    18   ar
    25    18    19   ar
    26     4     5   ar
    27     5     6    1
    28     5     7   ar
    29     7     8    1
    30    31    27   ar
    31    25    21    1
    32     7     1   ar
    33    19    14   ar
    34    12    13    1
