@<TRIPOS>MOLECULE
*****
 32 36 0 0 0
SMALL
GASTEIGER

@<TRIPOS>ATOM
      1 C         141.4626  142.0402  160.5855 C.ar    1  UNL1        0.0537
      2 C         140.8278  140.8690  159.8963 C.ar    1  UNL1        0.0060
      3 C         140.1803  139.7839  160.7046 C.ar    1  UNL1        0.0173
      4 C         140.1678  139.8700  162.2021 C.ar    1  UNL1        0.0594
      5 C         140.8027  141.0413  162.8913 C.ar    1  UNL1        0.0130
      6 C         141.4501  142.1264  162.0830 C.ar    1  UNL1        0.0057
      7 C         140.6364  140.8547  164.3703 C.ar    1  UNL1       -0.0091
      8 C         139.8988  139.5680  164.5952 C.ar    1  UNL1        0.0331
      9 N         139.6092  138.9595  163.2552 N.ar    1  UNL1       -0.3289
     10 C         138.8876  137.6673  163.0110 C.3     1  UNL1        0.1301
     11 C         139.5863  139.1169  165.9911 C.3     1  UNL1        0.0435
     12 C         140.0113  139.9523  167.1623 C.3     1  UNL1        0.0066
     13 C         140.7489  141.2390  166.9374 C.3     1  UNL1        0.0049
     14 C         141.0615  141.6901  165.5413 C.3     1  UNL1        0.0275
     15 C         141.1739  142.0744  168.1084 C.3     1  UNL1        0.0053
     16 C         142.5343  141.8842  168.7110 C.3     1  UNL1        0.0322
     17 C         142.9593  142.7197  169.8821 C.3     1  UNL1        0.1422
     18 O         142.0240  143.7453  170.4505 O.3     1  UNL1       -0.3538
     19 C         140.6636  143.9355  169.8479 C.3     1  UNL1        0.1422
     20 C         140.2385  143.1001  168.6769 C.3     1  UNL1        0.0322
     21 C         141.9962  145.4626  158.6481 C.3     1  UNL1        0.1157
     22 N         141.3488  144.3774  159.4564 N.am    1  UNL1       -0.2660
     23 C         142.1101  143.1254  159.7772 C.2     1  UNL1        0.2494
     24 O         143.5188  142.9586  159.2898 O.2     1  UNL1       -0.2699
     25 C         139.9400  144.5442  159.9438 C.3     1  UNL1        0.1793
     26 C         139.6781  144.8613  161.3864 C.2     1  UNL1        0.2427
     27 O         140.3080  146.0686  162.0153 O.2     1  UNL1       -0.2732
     28 N         138.7863  143.9710  162.2000 N.am    1  UNL1       -0.3046
     29 H         138.3728  143.1785  161.7872 H       1  UNL1        0.1494
     30 C         138.5243  144.2879  163.6425 C.3     1  UNL1        0.0717
     31 C         137.5918  144.3196  164.8170 C.3     1  UNL1        0.0213
     32 C         139.0031  144.8052  164.9666 C.3     1  UNL1        0.0213
@<TRIPOS>BOND
     1    21    22    1
     2    22    25    1
     3    25    26    1
     4    26    27    2
     5    26    28   am
     6    28    30    1
     7    30    31    1
     8    31    32    1
     9    22    23   am
    10    23    24    2
    11    23     1    1
    12     1     2   ar
    13     2     3   ar
    14     3     4   ar
    15     4     5   ar
    16     5     6   ar
    17     5     7   ar
    18     7     8   ar
    19     8     9   ar
    20     9    10    1
    21     8    11    1
    22    11    12    1
    23    12    13    1
    24    13    15    1
    25    15    16    1
    26    16    17    1
    27    17    18    1
    28    18    19    1
    29    19    20    1
    30    13    14    1
    31    32    30    1
    32     6     1   ar
    33    14     7    1
    34     9     4   ar
    35    20    15    1
    36    28    29    1
@<TRIPOS>MOLECULE
*****
 32 36 0 0 0
SMALL
GASTEIGER

@<TRIPOS>ATOM
      1 C         140.2071  142.5505  160.7841 C.ar    1  UNL1        0.0537
      2 C         139.6793  141.3196  160.1084 C.ar    1  UNL1        0.0060
      3 C         139.3623  140.0973  160.9179 C.ar    1  UNL1        0.0173
      4 C         139.5731  140.1057  162.4030 C.ar    1  UNL1        0.0594
      5 C         140.1009  141.3365  163.0786 C.ar    1  UNL1        0.0130
      6 C         140.4179  142.5589  162.2691 C.ar    1  UNL1        0.0057
      7 C         140.2057  141.0503  164.5473 C.ar    1  UNL1       -0.0091
      8 C         139.7427  139.6425  164.7794 C.ar    1  UNL1        0.0331
      9 N         139.3517  139.0587  163.4542 N.ar    1  UNL1       -0.3289
     10 C         138.8308  137.6715  163.2210 C.3     1  UNL1        0.1301
     11 C         139.7369  139.0741  166.1675 C.3     1  UNL1        0.0435
     12 C         140.1942  139.9135  167.3236 C.3     1  UNL1        0.0066
     13 C         140.6572  141.3213  167.0915 C.3     1  UNL1        0.0049
     14 C         140.6630  141.8896  165.7033 C.3     1  UNL1        0.0275
     15 C         141.1144  142.1606  168.2475 C.3     1  UNL1        0.0053
     16 C         142.4800  141.9520  168.8320 C.3     1  UNL1        0.0322
     17 C         142.9373  142.7914  169.9880 C.3     1  UNL1        0.1422
     18 O         142.0290  143.8393  170.5595 O.3     1  UNL1       -0.3538
     19 C         140.6634  144.0479  169.9750 C.3     1  UNL1        0.1422
     20 C         140.2061  143.2086  168.8191 C.3     1  UNL1        0.0322
     21 C         142.2002  145.1570  158.5515 C.3     1  UNL1        0.1157
     22 N         141.8832  143.9345  159.3610 N.am    1  UNL1       -0.2660
     23 C         140.5240  143.7729  159.9746 C.2     1  UNL1        0.2494
     24 O         139.4818  144.8337  159.7787 O.2     1  UNL1       -0.2699
     25 C         142.9255  142.8737  159.5569 C.3     1  UNL1        0.1793
     26 C         143.6220  142.7416  160.8788 C.2     1  UNL1        0.2427
     27 O         143.8907  143.9609  161.7101 O.2     1  UNL1       -0.2732
     28 N         144.0499  141.3902  161.3694 N.am    1  UNL1       -0.3046
     29 H         143.8736  140.5899  160.8238 H       1  UNL1        0.1494
     30 C         144.7464  141.2581  162.6913 C.3     1  UNL1        0.0717
     31 C         145.8974  141.5945  163.5925 C.3     1  UNL1        0.0213
     32 C         144.8019  140.6930  164.0796 C.3     1  UNL1        0.0213
@<TRIPOS>BOND
     1    21    22    1
     2    22    25    1
     3    25    26    1
     4    26    27    2
     5    26    28   am
     6    28    30    1
     7    30    31    1
     8    31    32    1
     9    22    23   am
    10    23    24    2
    11    23     1    1
    12     1     2   ar
    13     2     3   ar
    14     3     4   ar
    15     4     5   ar
    16     5     6   ar
    17     5     7   ar
    18     7     8   ar
    19     8     9   ar
    20     9    10    1
    21     8    11    1
    22    11    12    1
    23    12    13    1
    24    13    15    1
    25    15    16    1
    26    16    17    1
    27    17    18    1
    28    18    19    1
    29    19    20    1
    30    13    14    1
    31    32    30    1
    32     6     1   ar
    33    14     7    1
    34     9     4   ar
    35    20    15    1
    36    28    29    1
@<TRIPOS>MOLECULE
*****
 32 36 0 0 0
SMALL
GASTEIGER

@<TRIPOS>ATOM
      1 C         140.6572  140.3164  160.9308 C.ar    1  UNL1        0.0537
      2 C         141.9314  140.5538  160.1758 C.ar    1  UNL1        0.0060
      3 C         143.1431  141.0705  160.8934 C.ar    1  UNL1        0.0173
      4 C         143.0806  141.3497  162.3658 C.ar    1  UNL1        0.0594
      5 C         141.8064  141.1122  163.1208 C.ar    1  UNL1        0.0130
      6 C         140.5947  140.5956  162.4032 C.ar    1  UNL1        0.0057
      7 C         142.0436  141.4758  164.5565 C.ar    1  UNL1       -0.0091
      8 C         143.4645  141.9380  164.6890 C.ar    1  UNL1        0.0331
      9 N         144.1054  141.8600  163.3350 N.ar    1  UNL1       -0.3289
     10 C         145.5223  142.2279  163.0077 C.3     1  UNL1        0.1301
     11 C         143.9912  142.3701  166.0253 C.3     1  UNL1        0.0435
     12 C         143.0969  142.3401  167.2293 C.3     1  UNL1        0.0066
     13 C         141.6761  141.8779  167.0969 C.3     1  UNL1        0.0049
     14 C         141.1494  141.4458  165.7605 C.3     1  UNL1        0.0275
     15 C         140.7818  141.8479  168.3008 C.3     1  UNL1        0.0053
     16 C         139.9745  140.6208  168.6049 C.3     1  UNL1        0.0322
     17 C         139.0802  140.5908  169.8088 C.3     1  UNL1        0.1422
     18 O         138.9934  141.7877  170.7086 O.3     1  UNL1       -0.3538
     19 C         139.8008  143.0148  170.4045 C.3     1  UNL1        0.1422
     20 C         140.6950  143.0449  169.2007 C.3     1  UNL1        0.0322
     21 C         137.1103  140.2161  159.1531 C.3     1  UNL1        0.1157
     22 N         138.3221  140.7328  159.8706 N.am    1  UNL1       -0.2660
     23 C         139.4454  139.7997  160.2133 C.2     1  UNL1        0.2494
     24 O         139.3571  138.3500  159.8385 O.2     1  UNL1       -0.2699
     25 C         138.4104  142.1825  160.2454 C.3     1  UNL1        0.1793
     26 C         138.1737  142.6060  161.6648 C.2     1  UNL1        0.2427
     27 O         137.1562  141.8888  162.5017 O.2     1  UNL1       -0.2732
     28 N         138.9545  143.7466  162.2473 N.am    1  UNL1       -0.3046
     29 H         139.6223  144.2173  161.6981 H       1  UNL1        0.1494
     30 C         138.7178  144.1701  163.6667 C.3     1  UNL1        0.0717
     31 C         139.2322  144.7405  164.9551 C.3     1  UNL1        0.0213
     32 C         137.7935  144.3332  164.8367 C.3     1  UNL1        0.0213
@<TRIPOS>BOND
     1    21    22    1
     2    22    25    1
     3    25    26    1
     4    26    27    2
     5    26    28   am
     6    28    30    1
     7    30    31    1
     8    31    32    1
     9    22    23   am
    10    23    24    2
    11    23     1    1
    12     1     2   ar
    13     2     3   ar
    14     3     4   ar
    15     4     5   ar
    16     5     6   ar
    17     5     7   ar
    18     7     8   ar
    19     8     9   ar
    20     9    10    1
    21     8    11    1
    22    11    12    1
    23    12    13    1
    24    13    15    1
    25    15    16    1
    26    16    17    1
    27    17    18    1
    28    18    19    1
    29    19    20    1
    30    13    14    1
    31    32    30    1
    32     6     1   ar
    33    14     7    1
    34     9     4   ar
    35    20    15    1
    36    28    29    1
@<TRIPOS>MOLECULE
*****
 32 36 0 0 0
SMALL
GASTEIGER

@<TRIPOS>ATOM
      1 C         142.1423  140.9278  160.6627 C.ar    1  UNL1        0.0537
      2 C         141.7478  141.9857  159.6752 C.ar    1  UNL1        0.0060
      3 C         141.0279  143.2162  160.1418 C.ar    1  UNL1        0.0173
      4 C         140.7025  143.3886  161.5959 C.ar    1  UNL1        0.0594
      5 C         141.0970  142.3307  162.5834 C.ar    1  UNL1        0.0130
      6 C         141.8168  141.1003  162.1168 C.ar    1  UNL1        0.0057
      7 C         140.6449  142.7741  163.9431 C.ar    1  UNL1       -0.0091
      8 C         139.9710  144.1062  163.7961 C.ar    1  UNL1        0.0331
      9 N         140.0066  144.4860  162.3454 N.ar    1  UNL1       -0.3289
     10 C         139.4450  145.7424  161.7489 C.3     1  UNL1        0.1301
     11 C         139.4120  144.8011  165.0021 C.3     1  UNL1        0.0435
     12 C         139.5269  144.1640  166.3553 C.3     1  UNL1        0.0066
     13 C         140.2007  142.8320  166.5024 C.3     1  UNL1        0.0049
     14 C         140.7597  142.1370  165.2962 C.3     1  UNL1        0.0275
     15 C         140.3156  142.1949  167.8555 C.3     1  UNL1        0.0053
     16 C         140.3204  140.7004  167.9828 C.3     1  UNL1        0.0322
     17 C         140.4353  140.0633  169.3359 C.3     1  UNL1        0.1422
     18 O         140.5454  140.9207  170.5616 O.3     1  UNL1       -0.3538
     19 C         140.5407  142.4153  170.4343 C.3     1  UNL1        0.1422
     20 C         140.4258  143.0524  169.0813 C.3     1  UNL1        0.0322
     21 C         142.8608  137.1530  159.6700 C.3     1  UNL1        0.1157
     22 N         142.1408  138.3835  160.1366 N.am    1  UNL1       -0.2660
     23 C         142.8622  139.6973  160.1961 C.2     1  UNL1        0.2494
     24 O         144.3035  139.7806  159.7890 O.2     1  UNL1       -0.2699
     25 C         140.6996  138.3001  160.5437 C.3     1  UNL1        0.1793
     26 C         140.3387  138.0381  161.9760 C.2     1  UNL1        0.2427
     27 O         141.0649  136.9786  162.7506 O.2     1  UNL1       -0.2732
     28 N         139.2517  138.8355  162.6335 N.am    1  UNL1       -0.3046
     29 H         138.7750  139.5309  162.1251 H       1  UNL1        0.1494
     30 C         138.8908  138.5735  164.0657 C.3     1  UNL1        0.0717
     31 C         138.3577  139.0595  165.3808 C.3     1  UNL1        0.0213
     32 C         138.7989  137.6337  165.2311 C.3     1  UNL1        0.0213
@<TRIPOS>BOND
     1    21    22    1
     2    22    25    1
     3    25    26    1
     4    26    27    2
     5    26    28   am
     6    28    30    1
     7    30    31    1
     8    31    32    1
     9    22    23   am
    10    23    24    2
    11    23     1    1
    12     1     2   ar
    13     2     3   ar
    14     3     4   ar
    15     4     5   ar
    16     5     6   ar
    17     5     7   ar
    18     7     8   ar
    19     8     9   ar
    20     9    10    1
    21     8    11    1
    22    11    12    1
    23    12    13    1
    24    13    15    1
    25    15    16    1
    26    16    17    1
    27    17    18    1
    28    18    19    1
    29    19    20    1
    30    13    14    1
    31    32    30    1
    32     6     1   ar
    33    14     7    1
    34     9     4   ar
    35    20    15    1
    36    28    29    1
@<TRIPOS>MOLECULE
*****
 32 36 0 0 0
SMALL
GASTEIGER

@<TRIPOS>ATOM
      1 C         140.5238  140.3575  160.0595 C.ar    1  UNL1        0.0537
      2 C         140.0916  141.5880  159.3186 C.ar    1  UNL1        0.0060
      3 C         139.7651  142.8422  160.0737 C.ar    1  UNL1        0.0173
      4 C         139.8709  142.8659  161.5698 C.ar    1  UNL1        0.0594
      5 C         140.3031  141.6354  162.3107 C.ar    1  UNL1        0.0130
      6 C         140.6296  140.3812  161.5555 C.ar    1  UNL1        0.0057
      7 C         140.3154  141.9568  163.7758 C.ar    1  UNL1       -0.0091
      8 C         139.8908  143.3860  163.9404 C.ar    1  UNL1        0.0331
      9 N         139.6160  143.9479  162.5770 N.ar    1  UNL1       -0.3289
     10 C         139.1656  145.3462  162.2740 C.3     1  UNL1        0.1301
     11 C         139.8092  143.9912  165.3105 C.3     1  UNL1        0.0435
     12 C         140.1523  143.1671  166.5161 C.3     1  UNL1        0.0066
     13 C         140.5769  141.7379  166.3515 C.3     1  UNL1        0.0049
     14 C         140.6584  141.1327  164.9813 C.3     1  UNL1        0.0275
     15 C         140.9199  140.9138  167.5569 C.3     1  UNL1        0.0053
     16 C         142.1793  140.0991  167.5749 C.3     1  UNL1        0.0322
     17 C         142.5223  139.2750  168.7803 C.3     1  UNL1        0.1422
     18 O         141.6060  139.2656  169.9678 O.3     1  UNL1       -0.3538
     19 C         140.3467  140.0802  169.9499 C.3     1  UNL1        0.1422
     20 C         140.0036  140.9043  168.7445 C.3     1  UNL1        0.0322
     21 C         142.5969  137.5500  158.1698 C.3     1  UNL1        0.1157
     22 N         142.2704  138.8043  158.9250 N.am    1  UNL1       -0.2660
     23 C         140.8503  139.1032  159.3043 C.2     1  UNL1        0.2494
     24 O         139.7567  138.1479  158.9284 O.2     1  UNL1       -0.2699
     25 C         143.3641  139.7596  159.3008 C.3     1  UNL1        0.1793
     26 C         143.9637  139.7102  160.6749 C.2     1  UNL1        0.2427
     27 O         144.2313  138.3872  161.3293 O.2     1  UNL1       -0.2732
     28 N         144.2958  140.9837  161.3946 N.am    1  UNL1       -0.3046
     29 H         144.1202  141.8520  160.9650 H       1  UNL1        0.1494
     30 C         144.8954  140.9343  162.7686 C.3     1  UNL1        0.0717
     31 C         145.8249  141.4994  163.8014 C.3     1  UNL1        0.0213
     32 C         145.0045  140.2836  164.1157 C.3     1  UNL1        0.0213
@<TRIPOS>BOND
     1    21    22    1
     2    22    25    1
     3    25    26    1
     4    26    27    2
     5    26    28   am
     6    28    30    1
     7    30    31    1
     8    31    32    1
     9    22    23   am
    10    23    24    2
    11    23     1    1
    12     1     2   ar
    13     2     3   ar
    14     3     4   ar
    15     4     5   ar
    16     5     6   ar
    17     5     7   ar
    18     7     8   ar
    19     8     9   ar
    20     9    10    1
    21     8    11    1
    22    11    12    1
    23    12    13    1
    24    13    15    1
    25    15    16    1
    26    16    17    1
    27    17    18    1
    28    18    19    1
    29    19    20    1
    30    13    14    1
    31    32    30    1
    32     6     1   ar
    33    14     7    1
    34     9     4   ar
    35    20    15    1
    36    28    29    1
@<TRIPOS>MOLECULE
*****
 32 36 0 0 0
SMALL
GASTEIGER

@<TRIPOS>ATOM
      1 C         140.2336  141.8123  160.8376 C.ar    1  UNL1        0.0537
      2 C         141.5250  141.9001  160.0795 C.ar    1  UNL1        0.0060
      3 C         142.8227  142.0266  160.8210 C.ar    1  UNL1        0.0173
      4 C         142.8291  142.0654  162.3205 C.ar    1  UNL1        0.0594
      5 C         141.5377  141.9776  163.0785 C.ar    1  UNL1        0.0130
      6 C         140.2400  141.8511  162.3371 C.ar    1  UNL1        0.0057
      7 C         141.8548  142.0413  164.5432 C.ar    1  UNL1       -0.0091
      8 C         143.3422  142.1684  164.6904 C.ar    1  UNL1        0.0331
      9 N         143.9443  142.1833  163.3167 N.ar    1  UNL1       -0.3289
     10 C         145.4052  142.2963  162.9956 C.3     1  UNL1        0.1301
     11 C         143.9560  142.2542  166.0564 C.3     1  UNL1        0.0435
     12 C         143.0825  142.2128  167.2752 C.3     1  UNL1        0.0066
     13 C         141.5952  142.0857  167.1280 C.3     1  UNL1        0.0049
     14 C         140.9813  141.9999  165.7619 C.3     1  UNL1        0.0275
     15 C         140.7216  142.0443  168.3467 C.3     1  UNL1        0.0053
     16 C         140.6494  143.2333  169.2583 C.3     1  UNL1        0.0322
     17 C         139.7759  143.1919  170.4770 C.3     1  UNL1        0.1422
     18 O         138.9747  141.9616  170.7841 O.3     1  UNL1       -0.3538
     19 C         139.0469  140.7727  169.8724 C.3     1  UNL1        0.1422
     20 C         139.9203  140.8140  168.6537 C.3     1  UNL1        0.0322
     21 C         137.1511  140.2086  158.9201 C.3     1  UNL1        0.1157
     22 N         138.4489  140.3352  159.6616 N.am    1  UNL1       -0.2660
     23 C         138.9358  141.6857  160.0961 C.2     1  UNL1        0.2494
     24 O         138.1249  142.9098  159.7892 O.2     1  UNL1       -0.2699
     25 C         139.2598  139.1111  159.9685 C.3     1  UNL1        0.1793
     26 C         139.4074  138.6454  161.3867 C.2     1  UNL1        0.2427
     27 O         140.5029  137.6880  161.7516 O.2     1  UNL1       -0.2732
     28 N         138.4596  139.1373  162.4401 N.am    1  UNL1       -0.3046
     29 H         137.7406  139.7657  162.2007 H       1  UNL1        0.1494
     30 C         138.6072  138.6716  163.8583 C.3     1  UNL1        0.0717
     31 C         138.5824  138.9612  165.3299 C.3     1  UNL1        0.0213
     32 C         138.8876  137.5756  164.8432 C.3     1  UNL1        0.0213
@<TRIPOS>BOND
     1    21    22    1
     2    22    25    1
     3    25    26    1
     4    26    27    2
     5    26    28   am
     6    28    30    1
     7    30    31    1
     8    31    32    1
     9    22    23   am
    10    23    24    2
    11    23     1    1
    12     1     2   ar
    13     2     3   ar
    14     3     4   ar
    15     4     5   ar
    16     5     6   ar
    17     5     7   ar
    18     7     8   ar
    19     8     9   ar
    20     9    10    1
    21     8    11    1
    22    11    12    1
    23    12    13    1
    24    13    15    1
    25    15    16    1
    26    16    17    1
    27    17    18    1
    28    18    19    1
    29    19    20    1
    30    13    14    1
    31    32    30    1
    32     6     1   ar
    33    14     7    1
    34     9     4   ar
    35    20    15    1
    36    28    29    1
@<TRIPOS>MOLECULE
*****
 32 36 0 0 0
SMALL
GASTEIGER

@<TRIPOS>ATOM
      1 C         142.2316  142.7131  159.7252 C.ar    1  UNL1        0.0537
      2 C         142.7386  141.5558  158.9167 C.ar    1  UNL1        0.0060
      3 C         143.1926  140.3024  159.6042 C.ar    1  UNL1        0.0173
      4 C         143.1397  140.2062  161.1002 C.ar    1  UNL1        0.0594
      5 C         142.6327  141.3635  161.9087 C.ar    1  UNL1        0.0130
      6 C         142.1786  142.6169  161.2212 C.ar    1  UNL1        0.0057
      7 C         142.6962  140.9800  163.3574 C.ar    1  UNL1       -0.0091
      8 C         143.2425  139.5857  163.4443 C.ar    1  UNL1        0.0331
      9 N         143.5166  139.1074  162.0493 N.ar    1  UNL1       -0.3289
     10 C         144.0703  137.7660  161.6699 C.3     1  UNL1        0.1301
     11 C         143.4198  138.9317  164.7825 C.3     1  UNL1        0.0435
     12 C         143.0508  139.6720  166.0339 C.3     1  UNL1        0.0066
     13 C         142.5045  141.0663  165.9470 C.3     1  UNL1        0.0049
     14 C         142.3272  141.7203  164.6087 C.3     1  UNL1        0.0275
     15 C         142.1355  141.8066  167.1983 C.3     1  UNL1        0.0053
     16 C         143.1360  141.9517  168.3065 C.3     1  UNL1        0.0322
     17 C         142.7670  142.6921  169.5578 C.3     1  UNL1        0.1422
     18 O         141.3976  143.2872  169.7009 O.3     1  UNL1       -0.3538
     19 C         140.3972  143.1420  168.5927 C.3     1  UNL1        0.1422
     20 C         140.7661  142.4017  167.3415 C.3     1  UNL1        0.0322
     21 C         139.8588  145.4868  158.1674 C.3     1  UNL1        0.1157
     22 N         140.3129  144.2333  158.8549 N.am    1  UNL1       -0.2660
     23 C         141.7776  143.9666  159.0377 C.2     1  UNL1        0.2494
     24 O         142.7883  144.9534  158.5331 O.2     1  UNL1       -0.2699
     25 C         139.3021  143.2465  159.3595 C.3     1  UNL1        0.1793
     26 C         138.9471  143.2152  160.8166 C.2     1  UNL1        0.2427
     27 O         138.4505  141.9447  161.4404 O.2     1  UNL1       -0.2732
     28 N         139.0888  144.4544  161.6498 N.am    1  UNL1       -0.3046
     29 H         139.4147  145.2883  161.2404 H       1  UNL1        0.1494
     30 C         138.7338  144.4231  163.1068 C.3     1  UNL1        0.0717
     31 C         139.0684  144.7474  164.5326 C.3     1  UNL1        0.0213
     32 C         137.7844  144.0448  164.2047 C.3     1  UNL1        0.0213
@<TRIPOS>BOND
     1    21    22    1
     2    22    25    1
     3    25    26    1
     4    26    27    2
     5    26    28   am
     6    28    30    1
     7    30    31    1
     8    31    32    1
     9    22    23   am
    10    23    24    2
    11    23     1    1
    12     1     2   ar
    13     2     3   ar
    14     3     4   ar
    15     4     5   ar
    16     5     6   ar
    17     5     7   ar
    18     7     8   ar
    19     8     9   ar
    20     9    10    1
    21     8    11    1
    22    11    12    1
    23    12    13    1
    24    13    15    1
    25    15    16    1
    26    16    17    1
    27    17    18    1
    28    18    19    1
    29    19    20    1
    30    13    14    1
    31    32    30    1
    32     6     1   ar
    33    14     7    1
    34     9     4   ar
    35    20    15    1
    36    28    29    1
@<TRIPOS>MOLECULE
*****
 32 36 0 0 0
SMALL
GASTEIGER

@<TRIPOS>ATOM
      1 C         142.7641  140.5062  161.6142 C.ar    1  UNL1        0.0537
      2 C         141.9803  139.6250  160.6874 C.ar    1  UNL1        0.0060
      3 C         140.7612  138.9077  161.1865 C.ar    1  UNL1        0.0173
      4 C         140.3258  139.0717  162.6125 C.ar    1  UNL1        0.0594
      5 C         141.1096  139.9529  163.5394 C.ar    1  UNL1        0.0130
      6 C         142.3287  140.6701  163.0403 C.ar    1  UNL1        0.0057
      7 C         140.4432  139.9214  164.8829 C.ar    1  UNL1       -0.0091
      8 C         139.2476  139.0207  164.7864 C.ar    1  UNL1        0.0331
      9 N         139.1750  138.4956  163.3832 N.ar    1  UNL1       -0.3289
     10 C         138.1344  137.5588  162.8451 C.3     1  UNL1        0.1301
     11 C         138.3795  138.7952  165.9886 C.3     1  UNL1        0.0435
     12 C         138.7070  139.4703  167.2876 C.3     1  UNL1        0.0066
     13 C         139.9026  140.3710  167.3841 C.3     1  UNL1        0.0049
     14 C         140.7707  140.5966  166.1817 C.3     1  UNL1        0.0275
     15 C         140.2301  141.0461  168.6829 C.3     1  UNL1        0.0053
     16 C         140.4324  142.5318  168.7258 C.3     1  UNL1        0.0322
     17 C         140.7599  143.2069  170.0246 C.3     1  UNL1        0.1422
     18 O         140.8851  142.3964  171.2804 O.3     1  UNL1       -0.3538
     19 C         140.6828  140.9108  171.2376 C.3     1  UNL1        0.1422
     20 C         140.3553  140.2356  169.9389 C.3     1  UNL1        0.0322
     21 C         145.0729  142.9873  159.5493 C.3     1  UNL1        0.1157
     22 N         143.8537  142.2700  160.0484 N.am    1  UNL1       -0.2660
     23 C         143.9833  141.2235  161.1151 C.2     1  UNL1        0.2494
     24 O         145.3322  140.8941  161.6827 O.2     1  UNL1       -0.2699
     25 C         142.5049  142.5994  159.4808 C.3     1  UNL1        0.1793
     26 C         141.7221  143.7554  160.0296 C.2     1  UNL1        0.2427
     27 O         141.8650  145.1166  159.4160 O.2     1  UNL1       -0.2732
     28 N         140.7965  143.5500  161.1920 N.am    1  UNL1       -0.3046
     29 H         140.7028  142.6566  161.5947 H       1  UNL1        0.1494
     30 C         140.0138  144.7059  161.7408 C.3     1  UNL1        0.0717
     31 C         138.9275  145.2337  162.6303 C.3     1  UNL1        0.0213
     32 C         139.7445  146.1802  161.8018 C.3     1  UNL1        0.0213
@<TRIPOS>BOND
     1    21    22    1
     2    22    25    1
     3    25    26    1
     4    26    27    2
     5    26    28   am
     6    28    30    1
     7    30    31    1
     8    31    32    1
     9    22    23   am
    10    23    24    2
    11    23     1    1
    12     1     2   ar
    13     2     3   ar
    14     3     4   ar
    15     4     5   ar
    16     5     6   ar
    17     5     7   ar
    18     7     8   ar
    19     8     9   ar
    20     9    10    1
    21     8    11    1
    22    11    12    1
    23    12    13    1
    24    13    15    1
    25    15    16    1
    26    16    17    1
    27    17    18    1
    28    18    19    1
    29    19    20    1
    30    13    14    1
    31    32    30    1
    32     6     1   ar
    33    14     7    1
    34     9     4   ar
    35    20    15    1
    36    28    29    1
@<TRIPOS>MOLECULE
*****
 32 36 0 0 0
SMALL
GASTEIGER

@<TRIPOS>ATOM
      1 C         140.9456  141.7774  158.5786 C.ar    1  UNL1        0.0537
      2 C         140.9481  143.1731  158.0291 C.ar    1  UNL1        0.0060
      3 C         140.5863  144.3284  158.9146 C.ar    1  UNL1        0.0173
      4 C         140.2220  144.0881  160.3497 C.ar    1  UNL1        0.0594
      5 C         140.2195  142.6924  160.8993 C.ar    1  UNL1        0.0130
      6 C         140.5813  141.5371  160.0137 C.ar    1  UNL1        0.0057
      7 C         139.8200  142.7636  162.3433 C.ar    1  UNL1       -0.0091
      8 C         139.5756  144.2033  162.6863 C.ar    1  UNL1        0.0331
      9 N         139.8241  145.0219  161.4542 N.ar    1  UNL1       -0.3289
     10 C         139.6969  146.5126  161.3455 C.3     1  UNL1        0.1301
     11 C         139.1584  144.5829  164.0762 C.3     1  UNL1        0.0435
     12 C         138.9856  143.5227  165.1233 C.3     1  UNL1        0.0066
     13 C         139.2300  142.0830  164.7803 C.3     1  UNL1        0.0049
     14 C         139.6472  141.7035  163.3903 C.3     1  UNL1        0.0275
     15 C         139.0572  141.0228  165.8273 C.3     1  UNL1        0.0053
     16 C         139.7971  141.1256  167.1280 C.3     1  UNL1        0.0322
     17 C         139.6243  140.0655  168.1750 C.3     1  UNL1        0.1422
     18 O         138.7116  138.9026  167.9213 O.3     1  UNL1       -0.3538
     19 C         137.9717  138.7997  166.6205 C.3     1  UNL1        0.1422
     20 C         138.1444  139.8598  165.5736 C.3     1  UNL1        0.0322
     21 C         143.0713  138.9335  156.8054 C.3     1  UNL1        0.1157
     22 N         142.7095  140.0890  157.6909 N.am    1  UNL1       -0.2660
     23 C         141.3074  140.6220  157.6931 C.2     1  UNL1        0.2494
     24 O         140.2671  139.9996  156.8097 O.2     1  UNL1       -0.2699
     25 C         143.7498  140.7113  158.5743 C.3     1  UNL1        0.1793
     26 C         143.9262  140.2254  159.9825 C.2     1  UNL1        0.2427
     27 O         144.1944  138.7735  160.2468 O.2     1  UNL1       -0.2732
     28 N         143.8343  141.1915  161.1263 N.am    1  UNL1       -0.3046
     29 H         143.6582  142.1444  160.9528 H       1  UNL1        0.1494
     30 C         144.0107  140.7056  162.5344 C.3     1  UNL1        0.0717
     31 C         143.4922  140.5661  163.9350 C.3     1  UNL1        0.0213
     32 C         144.8346  140.0036  163.5727 C.3     1  UNL1        0.0213
@<TRIPOS>BOND
     1    21    22    1
     2    22    25    1
     3    25    26    1
     4    26    27    2
     5    26    28   am
     6    28    30    1
     7    30    31    1
     8    31    32    1
     9    22    23   am
    10    23    24    2
    11    23     1    1
    12     1     2   ar
    13     2     3   ar
    14     3     4   ar
    15     4     5   ar
    16     5     6   ar
    17     5     7   ar
    18     7     8   ar
    19     8     9   ar
    20     9    10    1
    21     8    11    1
    22    11    12    1
    23    12    13    1
    24    13    15    1
    25    15    16    1
    26    16    17    1
    27    17    18    1
    28    18    19    1
    29    19    20    1
    30    13    14    1
    31    32    30    1
    32     6     1   ar
    33    14     7    1
    34     9     4   ar
    35    20    15    1
    36    28    29    1
