@<TRIPOS>MOLECULE
*****
 20 21 0 0 0
SMALL
GASTEIGER

@<TRIPOS>ATOM
      1 C         140.9528  144.3443  164.0881 C.ar    1  UNL1        0.0265
      2 C         141.9235  145.4409  163.7638 C.ar    1  UNL1        0.0000
      3 C         143.3980  145.1660  163.7787 C.ar    1  UNL1       -0.0001
      4 C         143.9019  143.7945  164.1179 C.ar    1  UNL1        0.0031
      5 C         142.9312  142.6979  164.4422 C.ar    1  UNL1        0.0372
      6 C         141.4567  142.9728  164.4273 C.ar    1  UNL1        0.1425
      7 C         139.4783  144.6191  164.0731 C.3     1  UNL1        0.0799
      8 C         138.7625  144.9419  165.3512 C.3     1  UNL1        0.0221
      9 C         137.9518  143.3381  162.4062 C.3     1  UNL1        0.0861
     10 N         138.7195  144.5713  162.7801 N.3     1  UNL1       -0.2939
     11 H         138.0491  145.3397  162.8035 H       1  UNL1        0.1235
     12 O         140.4860  141.8761  164.7516 O.3     1  UNL1       -0.4537
     13 C         140.2302  141.4993  166.1808 C.ar    1  UNL1        0.1462
     14 C         139.6115  140.1724  166.5074 C.ar    1  UNL1        0.0384
     15 C         139.3557  139.7956  167.9365 C.ar    1  UNL1        0.0154
     16 C         139.7185  140.7456  169.0391 C.ar    1  UNL1        0.0684
     17 CL        139.4627  140.3688  170.4683 Cl      1  UNL1       -0.0814
     18 C         140.3372  142.0725  168.7126 C.ar    1  UNL1        0.0712
     19 CL        140.7000  143.0226  169.8152 Cl      1  UNL1       -0.0813
     20 C         140.5930  142.4494  167.2834 C.ar    1  UNL1        0.0497
@<TRIPOS>BOND
     1     9    10    1
     2    10     7    1
     3     7     8    1
     4     7     1    1
     5     1     2   ar
     6     2     3   ar
     7     3     4   ar
     8     4     5   ar
     9     5     6   ar
    10     6    12    1
    11    12    13    1
    12    13    14   ar
    13    14    15   ar
    14    15    16   ar
    15    16    17    1
    16    16    18   ar
    17    18    19    1
    18    18    20   ar
    19     6     1   ar
    20    20    13   ar
    21    10    11    1
@<TRIPOS>MOLECULE
*****
 20 21 0 0 0
SMALL
GASTEIGER

@<TRIPOS>ATOM
      1 C         138.5032  141.9382  164.0330 C.ar    1  UNL1        0.0265
      2 C         137.6050  142.8754  163.2815 C.ar    1  UNL1        0.0000
      3 C         137.9518  144.3317  163.1861 C.ar    1  UNL1       -0.0001
      4 C         139.1969  144.8506  163.8422 C.ar    1  UNL1        0.0031
      5 C         140.0951  143.9134  164.5936 C.ar    1  UNL1        0.0372
      6 C         139.7482  142.4572  164.6891 C.ar    1  UNL1        0.1425
      7 C         138.1563  140.4820  164.1284 C.3     1  UNL1        0.0799
      8 C         138.0607  139.6506  162.8836 C.3     1  UNL1        0.0221
      9 C         138.6658  138.6312  165.8791 C.3     1  UNL1        0.0861
     10 N         137.9051  139.8571  165.4687 N.3     1  UNL1       -0.2939
     11 H         138.1005  140.5729  166.1686 H       1  UNL1        0.1235
     12 O         140.6465  141.5199  165.4406 O.3     1  UNL1       -0.4537
     13 C         141.2358  141.9383  166.7550 C.ar    1  UNL1        0.1462
     14 C         142.7186  141.8643  166.9697 C.ar    1  UNL1        0.0384
     15 C         143.3079  142.2826  168.2841 C.ar    1  UNL1        0.0154
     16 C         142.4145  142.7750  169.3838 C.ar    1  UNL1        0.0684
     17 CL        143.0037  143.1934  170.6982 Cl      1  UNL1       -0.0814
     18 C         140.9318  142.8490  169.1692 C.ar    1  UNL1        0.0712
     19 CL        140.0384  143.3413  170.2689 Cl      1  UNL1       -0.0813
     20 C         140.3424  142.4306  167.8547 C.ar    1  UNL1        0.0497
@<TRIPOS>BOND
     1     9    10    1
     2    10     7    1
     3     7     8    1
     4     7     1    1
     5     1     2   ar
     6     2     3   ar
     7     3     4   ar
     8     4     5   ar
     9     5     6   ar
    10     6    12    1
    11    12    13    1
    12    13    14   ar
    13    14    15   ar
    14    15    16   ar
    15    16    17    1
    16    16    18   ar
    17    18    19    1
    18    18    20   ar
    19     6     1   ar
    20    20    13   ar
    21    10    11    1
@<TRIPOS>MOLECULE
*****
 20 21 0 0 0
SMALL
GASTEIGER

@<TRIPOS>ATOM
      1 C         138.3348  141.7962  164.5065 C.ar    1  UNL1        0.0265
      2 C         137.5380  142.7153  163.6288 C.ar    1  UNL1        0.0000
      3 C         137.7311  144.1996  163.7260 C.ar    1  UNL1       -0.0001
      4 C         138.7211  144.7649  164.7009 C.ar    1  UNL1        0.0031
      5 C         139.5179  143.8458  165.5785 C.ar    1  UNL1        0.0372
      6 C         139.3247  142.3615  165.4814 C.ar    1  UNL1        0.1425
      7 C         138.1416  140.3119  164.4093 C.3     1  UNL1        0.0799
      8 C         138.2994  139.6200  163.0879 C.3     1  UNL1        0.0221
      9 C         138.4137  138.1739  165.8601 C.3     1  UNL1        0.0861
     10 N         137.7907  139.5195  165.6336 N.3     1  UNL1       -0.2939
     11 H         138.0359  140.0966  166.4381 H       1  UNL1        0.1235
     12 O         140.1216  141.4424  166.3591 O.3     1  UNL1       -0.4537
     13 C         141.4282  140.8880  165.8741 C.ar    1  UNL1        0.1462
     14 C         142.1594  141.5636  164.7520 C.ar    1  UNL1        0.0384
     15 C         143.4660  141.0091  164.2670 C.ar    1  UNL1        0.0154
     16 C         144.0415  139.7791  164.9040 C.ar    1  UNL1        0.0684
     17 CL        145.3481  139.2246  164.4189 Cl      1  UNL1       -0.0814
     18 C         143.3104  139.1035  166.0260 C.ar    1  UNL1        0.0712
     19 CL        143.8859  137.8734  166.6630 Cl      1  UNL1       -0.0813
     20 C         142.0037  139.6579  166.5111 C.ar    1  UNL1        0.0497
@<TRIPOS>BOND
     1     9    10    1
     2    10     7    1
     3     7     8    1
     4     7     1    1
     5     1     2   ar
     6     2     3   ar
     7     3     4   ar
     8     4     5   ar
     9     5     6   ar
    10     6    12    1
    11    12    13    1
    12    13    14   ar
    13    14    15   ar
    14    15    16   ar
    15    16    17    1
    16    16    18   ar
    17    18    19    1
    18    18    20   ar
    19     6     1   ar
    20    20    13   ar
    21    10    11    1
@<TRIPOS>MOLECULE
*****
 20 21 0 0 0
SMALL
GASTEIGER

@<TRIPOS>ATOM
      1 C         139.9991  140.4768  167.5469 C.ar    1  UNL1        0.0265
      2 C         139.2630  140.2573  168.8352 C.ar    1  UNL1        0.0000
      3 C         139.4285  141.2264  169.9681 C.ar    1  UNL1       -0.0001
      4 C         140.3301  142.4150  169.8126 C.ar    1  UNL1        0.0031
      5 C         141.0662  142.6345  168.5243 C.ar    1  UNL1        0.0372
      6 C         140.9007  141.6654  167.3914 C.ar    1  UNL1        0.1425
      7 C         139.8335  139.5077  166.4140 C.3     1  UNL1        0.0799
      8 C         138.4602  139.0893  165.9795 C.3     1  UNL1        0.0221
      9 C         140.8897  137.8482  164.7167 C.3     1  UNL1        0.0861
     10 N         141.0414  138.9569  165.7156 N.3     1  UNL1       -0.2939
     11 H         141.4793  139.7369  165.2255 H       1  UNL1        0.1235
     12 O         141.6369  141.8849  166.1030 O.3     1  UNL1       -0.4537
     13 C         141.1508  142.9156  165.1277 C.ar    1  UNL1        0.1462
     14 C         142.1348  143.7857  164.4032 C.ar    1  UNL1        0.0384
     15 C         141.6487  144.8164  163.4279 C.ar    1  UNL1        0.0154
     16 C         140.1786  144.9771  163.1770 C.ar    1  UNL1        0.0684
     17 CL        139.6925  146.0078  162.2017 Cl      1  UNL1       -0.0814
     18 C         139.1946  144.1071  163.9014 C.ar    1  UNL1        0.0712
     19 CL        137.7245  144.2679  163.6505 Cl      1  UNL1       -0.0813
     20 C         139.6807  143.0763  164.8768 C.ar    1  UNL1        0.0497
@<TRIPOS>BOND
     1     9    10    1
     2    10     7    1
     3     7     8    1
     4     7     1    1
     5     1     2   ar
     6     2     3   ar
     7     3     4   ar
     8     4     5   ar
     9     5     6   ar
    10     6    12    1
    11    12    13    1
    12    13    14   ar
    13    14    15   ar
    14    15    16   ar
    15    16    17    1
    16    16    18   ar
    17    18    19    1
    18    18    20   ar
    19     6     1   ar
    20    20    13   ar
    21    10    11    1
@<TRIPOS>MOLECULE
*****
 20 21 0 0 0
SMALL
GASTEIGER

@<TRIPOS>ATOM
      1 C         140.1406  140.2070  168.2392 C.ar    1  UNL1        0.0265
      2 C         139.6617  140.8617  169.5009 C.ar    1  UNL1        0.0000
      3 C         140.5813  140.9806  170.6799 C.ar    1  UNL1       -0.0001
      4 C         141.9799  140.4447  170.5973 C.ar    1  UNL1        0.0031
      5 C         142.4588  139.7900  169.3355 C.ar    1  UNL1        0.0372
      6 C         141.5392  139.6712  168.1565 C.ar    1  UNL1        0.1425
      7 C         139.2210  140.0882  167.0601 C.3     1  UNL1        0.0799
      8 C         138.2345  138.9605  166.9891 C.3     1  UNL1        0.0221
      9 C         138.3872  140.9627  164.7601 C.3     1  UNL1        0.0861
     10 N         139.2879  141.0970  165.9521 N.3     1  UNL1       -0.2939
     11 H         139.0903  142.0064  166.3695 H       1  UNL1        0.1235
     12 O         142.0182  139.0164  166.8947 O.3     1  UNL1       -0.4537
     13 C         143.0000  139.7241  166.0086 C.ar    1  UNL1        0.1462
     14 C         143.9622  138.9327  165.1731 C.ar    1  UNL1        0.0384
     15 C         144.9440  139.6403  164.2870 C.ar    1  UNL1        0.0154
     16 C         144.9637  141.1394  164.2363 C.ar    1  UNL1        0.0684
     17 CL        145.9455  141.8470  163.3502 Cl      1  UNL1       -0.0814
     18 C         144.0015  141.9307  165.0717 C.ar    1  UNL1        0.0712
     19 CL        144.0212  143.4297  165.0210 Cl      1  UNL1       -0.0813
     20 C         143.0197  141.2231  165.9579 C.ar    1  UNL1        0.0497
@<TRIPOS>BOND
     1     9    10    1
     2    10     7    1
     3     7     8    1
     4     7     1    1
     5     1     2   ar
     6     2     3   ar
     7     3     4   ar
     8     4     5   ar
     9     5     6   ar
    10     6    12    1
    11    12    13    1
    12    13    14   ar
    13    14    15   ar
    14    15    16   ar
    15    16    17    1
    16    16    18   ar
    17    18    19    1
    18    18    20   ar
    19     6     1   ar
    20    20    13   ar
    21    10    11    1
@<TRIPOS>MOLECULE
*****
 20 21 0 0 0
SMALL
GASTEIGER

@<TRIPOS>ATOM
      1 C         139.6163  139.9106  167.4962 C.ar    1  UNL1        0.0265
      2 C         138.3544  139.1463  167.2251 C.ar    1  UNL1        0.0000
      3 C         138.2622  138.2528  166.0238 C.ar    1  UNL1       -0.0001
      4 C         139.4317  138.1235  165.0936 C.ar    1  UNL1        0.0031
      5 C         140.6936  138.8878  165.3647 C.ar    1  UNL1        0.0372
      6 C         140.7859  139.7813  166.5660 C.ar    1  UNL1        0.1425
      7 C         139.7086  140.8041  168.6975 C.3     1  UNL1        0.0799
      8 C         139.0775  140.3870  169.9927 C.3     1  UNL1        0.0221
      9 C         141.3248  142.5606  169.7234 C.3     1  UNL1        0.0861
     10 N         140.4320  142.1147  168.6035 N.3     1  UNL1       -0.2939
     11 H         141.0108  142.0721  167.7647 H       1  UNL1        0.1235
     12 O         142.0479  140.5456  166.8370 O.3     1  UNL1       -0.4537
     13 C         142.6165  141.4516  165.7855 C.ar    1  UNL1        0.1462
     14 C         141.8623  142.6780  165.3644 C.ar    1  UNL1        0.0384
     15 C         142.4309  143.5840  164.3129 C.ar    1  UNL1        0.0154
     16 C         143.7538  143.2637  163.6824 C.ar    1  UNL1        0.0684
     17 CL        144.3224  144.1697  162.6309 Cl      1  UNL1       -0.0814
     18 C         144.5080  142.0374  164.1035 C.ar    1  UNL1        0.0712
     19 CL        145.8308  141.7172  163.4730 Cl      1  UNL1       -0.0813
     20 C         143.9394  141.1313  165.1550 C.ar    1  UNL1        0.0497
@<TRIPOS>BOND
     1     9    10    1
     2    10     7    1
     3     7     8    1
     4     7     1    1
     5     1     2   ar
     6     2     3   ar
     7     3     4   ar
     8     4     5   ar
     9     5     6   ar
    10     6    12    1
    11    12    13    1
    12    13    14   ar
    13    14    15   ar
    14    15    16   ar
    15    16    17    1
    16    16    18   ar
    17    18    19    1
    18    18    20   ar
    19     6     1   ar
    20    20    13   ar
    21    10    11    1
@<TRIPOS>MOLECULE
*****
 20 21 0 0 0
SMALL
GASTEIGER

@<TRIPOS>ATOM
      1 C         139.8112  138.4564  164.8326 C.ar    1  UNL1        0.0265
      2 C         138.4729  138.2170  165.4664 C.ar    1  UNL1        0.0000
      3 C         138.1670  138.7981  166.8149 C.ar    1  UNL1       -0.0001
      4 C         139.1993  139.6186  167.5298 C.ar    1  UNL1        0.0031
      5 C         140.5376  139.8580  166.8961 C.ar    1  UNL1        0.0372
      6 C         140.8435  139.2769  165.5475 C.ar    1  UNL1        0.1425
      7 C         140.1171  137.8753  163.4840 C.3     1  UNL1        0.0799
      8 C         139.0677  137.8739  162.4123 C.3     1  UNL1        0.0221
      9 C         142.2543  137.7537  162.0118 C.3     1  UNL1        0.0861
     10 N         141.4725  137.2955  163.2071 N.3     1  UNL1       -0.2939
     11 H         142.0482  137.4880  164.0269 H       1  UNL1        0.1235
     12 O         142.1819  139.5163  164.9137 O.3     1  UNL1       -0.4537
     13 C         142.5766  140.9016  164.4955 C.ar    1  UNL1        0.1462
     14 C         142.0163  141.4932  163.2361 C.ar    1  UNL1        0.0384
     15 C         142.4110  142.8785  162.8179 C.ar    1  UNL1        0.0154
     16 C         143.3662  143.6723  163.6590 C.ar    1  UNL1        0.0684
     17 CL        143.7609  145.0577  163.2408 Cl      1  UNL1       -0.0814
     18 C         143.9265  143.0808  164.9184 C.ar    1  UNL1        0.0712
     19 CL        144.8817  143.8747  165.7596 Cl      1  UNL1       -0.0813
     20 C         143.5318  141.6954  165.3367 C.ar    1  UNL1        0.0497
@<TRIPOS>BOND
     1     9    10    1
     2    10     7    1
     3     7     8    1
     4     7     1    1
     5     1     2   ar
     6     2     3   ar
     7     3     4   ar
     8     4     5   ar
     9     5     6   ar
    10     6    12    1
    11    12    13    1
    12    13    14   ar
    13    14    15   ar
    14    15    16   ar
    15    16    17    1
    16    16    18   ar
    17    18    19    1
    18    18    20   ar
    19     6     1   ar
    20    20    13   ar
    21    10    11    1
@<TRIPOS>MOLECULE
*****
 20 21 0 0 0
SMALL
GASTEIGER

@<TRIPOS>ATOM
      1 C         138.5209  141.7251  163.8935 C.ar    1  UNL1        0.0265
      2 C         137.5003  142.8074  163.7008 C.ar    1  UNL1        0.0000
      3 C         137.7939  144.2053  164.1588 C.ar    1  UNL1       -0.0001
      4 C         139.1080  144.5209  164.8094 C.ar    1  UNL1        0.0031
      5 C         140.1285  143.4387  165.0021 C.ar    1  UNL1        0.0372
      6 C         139.8350  142.0408  164.5442 C.ar    1  UNL1        0.1425
      7 C         138.2273  140.3273  163.4355 C.3     1  UNL1        0.0799
      8 C         137.8111  140.0747  162.0168 C.3     1  UNL1        0.0221
      9 C         139.0562  137.9259  163.9797 C.3     1  UNL1        0.0861
     10 N         138.3500  139.1819  164.3963 N.3     1  UNL1       -0.2939
     11 H         138.8407  139.5373  165.2169 H       1  UNL1        0.1235
     12 O         140.8556  140.9585  164.7369 O.3     1  UNL1       -0.4537
     13 C         141.1817  140.4724  166.1180 C.ar    1  UNL1        0.1462
     14 C         142.5078  139.8272  166.3924 C.ar    1  UNL1        0.0384
     15 C         142.8338  139.3411  167.7735 C.ar    1  UNL1        0.0154
     16 C         141.8338  139.5002  168.8801 C.ar    1  UNL1        0.0684
     17 CL        142.1598  139.0140  170.2612 Cl      1  UNL1       -0.0814
     18 C         140.5077  140.1453  168.6057 C.ar    1  UNL1        0.0712
     19 CL        139.5077  140.3044  169.7124 Cl      1  UNL1       -0.0813
     20 C         140.1816  140.6315  167.2246 C.ar    1  UNL1        0.0497
@<TRIPOS>BOND
     1     9    10    1
     2    10     7    1
     3     7     8    1
     4     7     1    1
     5     1     2   ar
     6     2     3   ar
     7     3     4   ar
     8     4     5   ar
     9     5     6   ar
    10     6    12    1
    11    12    13    1
    12    13    14   ar
    13    14    15   ar
    14    15    16   ar
    15    16    17    1
    16    16    18   ar
    17    18    19    1
    18    18    20   ar
    19     6     1   ar
    20    20    13   ar
    21    10    11    1
@<TRIPOS>MOLECULE
*****
 20 21 0 0 0
SMALL
GASTEIGER

@<TRIPOS>ATOM
      1 C         141.0642  139.7031  165.6466 C.ar    1  UNL1        0.0265
      2 C         141.3603  138.3024  165.1991 C.ar    1  UNL1        0.0000
      3 C         140.2543  137.4301  164.6837 C.ar    1  UNL1       -0.0001
      4 C         138.8521  137.9584  164.6159 C.ar    1  UNL1        0.0031
      5 C         138.5559  139.3591  165.0634 C.ar    1  UNL1        0.0372
      6 C         139.6620  140.2314  165.5788 C.ar    1  UNL1        0.1425
      7 C         142.1703  140.5755  166.1620 C.3     1  UNL1        0.0799
      8 C         143.4083  140.7807  165.3404 C.3     1  UNL1        0.0221
      9 C         143.0681  142.2376  167.9456 C.3     1  UNL1        0.0861
     10 N         142.0383  141.2426  167.4990 N.3     1  UNL1       -0.2939
     11 H         141.1409  141.7275  167.4988 H       1  UNL1        0.1235
     12 O         139.3658  141.6322  166.0263 O.3     1  UNL1       -0.4537
     13 C         139.3934  142.7578  165.0353 C.ar    1  UNL1        0.1462
     14 C         138.1672  143.0822  164.2344 C.ar    1  UNL1        0.0384
     15 C         138.1947  144.2078  163.2434 C.ar    1  UNL1        0.0154
     16 C         139.4484  145.0091  163.0531 C.ar    1  UNL1        0.0684
     17 CL        139.4760  146.1347  162.0621 Cl      1  UNL1       -0.0814
     18 C         140.6746  144.6847  163.8539 C.ar    1  UNL1        0.0712
     19 CL        141.9283  145.4860  163.6636 Cl      1  UNL1       -0.0813
     20 C         140.6471  143.5591  164.8450 C.ar    1  UNL1        0.0497
@<TRIPOS>BOND
     1     9    10    1
     2    10     7    1
     3     7     8    1
     4     7     1    1
     5     1     2   ar
     6     2     3   ar
     7     3     4   ar
     8     4     5   ar
     9     5     6   ar
    10     6    12    1
    11    12    13    1
    12    13    14   ar
    13    14    15   ar
    14    15    16   ar
    15    16    17    1
    16    16    18   ar
    17    18    19    1
    18    18    20   ar
    19     6     1   ar
    20    20    13   ar
    21    10    11    1
