@<TRIPOS>MOLECULE
*****
 38 43 0 0 0
SMALL
GASTEIGER

@<TRIPOS>ATOM
      1 C         141.2357  141.9635  170.6622 C.3     1  UNL1        0.1352
      2 N         141.4865  141.5257  169.2497 N.ar    1  UNL1       -0.2765
      3 C         142.6865  141.8723  168.4190 C.ar    1  UNL1        0.3317
      4 O         143.8463  142.7177  168.8551 O.2     1  UNL1       -0.2463
      5 N         142.5229  141.2251  167.0757 N.ar    1  UNL1       -0.2792
      6 C         141.2220  140.4785  167.0761 C.ar    1  UNL1        0.0826
      7 C         140.5378  139.6535  166.0267 C.ar    1  UNL1        0.0352
      8 C         141.1784  139.4678  164.6831 C.ar    1  UNL1        0.0053
      9 C         140.4942  138.6428  163.6337 C.ar    1  UNL1        0.0291
     10 C         139.1695  138.0036  163.9278 C.ar    1  UNL1        0.1416
     11 F         138.4853  137.1785  162.8783 F       1  UNL1       -0.2041
     12 C         138.5289  138.1893  165.2714 C.ar    1  UNL1        0.0488
     13 C         139.2131  139.0143  166.3209 C.ar    1  UNL1        0.0850
     14 N         138.5726  139.2000  167.6644 N.ar    1  UNL1       -0.2422
     15 C         139.2567  140.0250  168.7138 C.ar    1  UNL1        0.1175
     16 C         140.5814  140.6642  168.4197 C.ar    1  UNL1        0.0989
     17 C         143.4905  141.3097  165.9326 C.3     1  UNL1        0.1194
     18 C         144.0345  140.0551  165.3160 C.3     1  UNL1        0.0279
     19 C         145.0021  140.1397  164.1730 C.3     1  UNL1        0.0341
     20 C         145.4257  141.4788  163.6464 C.3     1  UNL1        0.1423
     21 O         144.8818  142.7334  164.2630 O.3     1  UNL1       -0.3518
     22 C         143.9142  142.6488  165.4061 C.3     1  UNL1        0.1647
     23 C         141.1347  138.4570  162.2901 C.ar    1  UNL1        0.0216
     24 C         142.5811  138.0708  162.1957 C.ar    1  UNL1        0.0064
     25 C         143.2217  137.8851  160.8521 C.ar    1  UNL1        0.0577
     26 C         142.4158  138.0855  159.6030 C.ar    1  UNL1        0.2249
     27 N         140.9695  138.4717  159.6974 N.ar    1  UNL1       -0.2101
     28 C         140.3289  138.6575  161.0409 C.ar    1  UNL1        0.1021
     29 O         143.0564  137.8997  158.2594 O.3     1  UNL1       -0.4602
     30 C         143.3018  139.0862  157.3750 C.3     1  UNL1        0.2085
     31 C         143.7063  140.3993  157.9768 C.3     1  UNL1        0.0647
     32 C         142.6963  141.4979  158.1282 C.3     1  UNL1        0.0759
     33 N         142.0638  141.7565  159.4634 N.3     1  UNL1       -0.2726
     34 C         142.8905  141.6787  160.7126 C.3     1  UNL1        0.0721
     35 C         142.2579  141.9373  162.0480 C.3     1  UNL1        0.0174
     36 C         140.7987  142.2737  162.1340 C.3     1  UNL1        0.0029
     37 C         139.9720  142.3515  160.8849 C.3     1  UNL1        0.0174
     38 C         140.6045  142.0929  159.5496 C.3     1  UNL1        0.0721
@<TRIPOS>BOND
     1     1     2    1
     2     2     3   ar
     3     3     4    2
     4     3     5   ar
     5    17     5    1
     6    17    18    1
     7    18    19    1
     8    19    20    1
     9    20    21    1
    10    21    22    1
    11     5     6   ar
    12     6     7   ar
    13     7     8   ar
    14     8     9   ar
    15     9    23    1
    16    23    24   ar
    17    24    25   ar
    18    25    26   ar
    19    26    29    1
    20    29    30    1
    21    30    31    1
    22    31    32    1
    23    32    33    1
    24    33    34    1
    25    34    35    1
    26    35    36    1
    27    36    37    1
    28    37    38    1
    29    26    27   ar
    30    27    28   ar
    31     9    10   ar
    32    10    11    1
    33    10    12   ar
    34    12    13   ar
    35    13    14   ar
    36    14    15   ar
    37    15    16   ar
    38    16     2   ar
    39    22    17    1
    40    16     6   ar
    41    13     7   ar
    42    28    23   ar
    43    38    33    1
@<TRIPOS>MOLECULE
*****
 38 43 0 0 0
SMALL
GASTEIGER

@<TRIPOS>ATOM
      1 C         139.5704  143.4173  156.7410 C.3     1  UNL1        0.1352
      2 N         139.4975  143.0569  158.1952 N.ar    1  UNL1       -0.2765
      3 C         139.6004  144.0126  159.3467 C.ar    1  UNL1        0.3317
      4 O         139.7944  145.4967  159.2462 O.2     1  UNL1       -0.2463
      5 N         139.4754  143.2238  160.6164 N.ar    1  UNL1       -0.2792
      6 C         139.2952  141.7805  160.2497 C.ar    1  UNL1        0.0826
      7 C         139.1205  140.5470  161.0850 C.ar    1  UNL1        0.0352
      8 C         139.1068  140.6501  162.5814 C.ar    1  UNL1        0.0053
      9 C         138.9321  139.4166  163.4167 C.ar    1  UNL1        0.0291
     10 C         138.7709  138.0798  162.7556 C.ar    1  UNL1        0.1416
     11 F         138.5962  136.8462  163.5909 F       1  UNL1       -0.2041
     12 C         138.7846  137.9766  161.2592 C.ar    1  UNL1        0.0488
     13 C         138.9594  139.2102  160.4239 C.ar    1  UNL1        0.0850
     14 N         138.9730  139.1070  158.9275 N.ar    1  UNL1       -0.2422
     15 C         139.1477  140.3406  158.0923 C.ar    1  UNL1        0.1175
     16 C         139.3089  141.6773  158.7534 C.ar    1  UNL1        0.0989
     17 C         139.5224  143.7805  162.0085 C.3     1  UNL1        0.1194
     18 C         138.2565  143.9316  162.7989 C.3     1  UNL1        0.0279
     19 C         138.3034  144.4883  164.1910 C.3     1  UNL1        0.0341
     20 C         139.6162  144.8940  164.7927 C.3     1  UNL1        0.1423
     21 O         140.8820  144.7429  164.0023 O.3     1  UNL1       -0.3518
     22 C         140.8351  144.1862  162.6102 C.3     1  UNL1        0.1647
     23 C         138.9184  139.5197  164.9131 C.ar    1  UNL1        0.0216
     24 C         139.6128  140.6627  165.5924 C.ar    1  UNL1        0.0064
     25 C         139.5992  140.7659  167.0888 C.ar    1  UNL1        0.0577
     26 C         138.8912  139.7261  167.9058 C.ar    1  UNL1        0.2249
     27 N         138.1967  138.5832  167.2265 N.ar    1  UNL1       -0.2101
     28 C         138.2104  138.4800  165.7301 C.ar    1  UNL1        0.1021
     29 O         138.8775  139.8293  169.4022 O.3     1  UNL1       -0.4602
     30 C         139.6303  140.9326  170.0848 C.3     1  UNL1        0.2085
     31 C         140.7457  140.6049  171.0326 C.3     1  UNL1        0.0647
     32 C         142.1719  140.7677  170.5974 C.3     1  UNL1        0.0759
     33 N         142.5132  140.7845  169.1369 N.3     1  UNL1       -0.2726
     34 C         142.6277  139.4953  168.3786 C.3     1  UNL1        0.0721
     35 C         142.9690  139.5121  166.9180 C.3     1  UNL1        0.0174
     36 C         143.1956  140.8180  166.2157 C.3     1  UNL1        0.0029
     37 C         143.0810  142.1072  166.9740 C.3     1  UNL1        0.0174
     38 C         142.7398  142.0904  168.4345 C.3     1  UNL1        0.0721
@<TRIPOS>BOND
     1     1     2    1
     2     2     3   ar
     3     3     4    2
     4     3     5   ar
     5    17     5    1
     6    17    18    1
     7    18    19    1
     8    19    20    1
     9    20    21    1
    10    21    22    1
    11     5     6   ar
    12     6     7   ar
    13     7     8   ar
    14     8     9   ar
    15     9    23    1
    16    23    24   ar
    17    24    25   ar
    18    25    26   ar
    19    26    29    1
    20    29    30    1
    21    30    31    1
    22    31    32    1
    23    32    33    1
    24    33    34    1
    25    34    35    1
    26    35    36    1
    27    36    37    1
    28    37    38    1
    29    26    27   ar
    30    27    28   ar
    31     9    10   ar
    32    10    11    1
    33    10    12   ar
    34    12    13   ar
    35    13    14   ar
    36    14    15   ar
    37    15    16   ar
    38    16     2   ar
    39    22    17    1
    40    16     6   ar
    41    13     7   ar
    42    28    23   ar
    43    38    33    1
@<TRIPOS>MOLECULE
*****
 38 43 0 0 0
SMALL
GASTEIGER

@<TRIPOS>ATOM
      1 C         140.8436  141.7695  156.7481 C.3     1  UNL1        0.1352
      2 N         140.7051  141.4944  158.2161 N.ar    1  UNL1       -0.2765
      3 C         140.9453  140.1776  158.8929 C.ar    1  UNL1        0.3317
      4 O         141.3663  138.9045  158.2205 O.2     1  UNL1       -0.2463
      5 N         140.6907  140.3572  160.3602 N.ar    1  UNL1       -0.2792
      6 C         140.2931  141.7851  160.5903 C.ar    1  UNL1        0.0826
      7 C         139.9241  142.5362  161.8351 C.ar    1  UNL1        0.0352
      8 C         139.9152  141.8333  163.1603 C.ar    1  UNL1        0.0053
      9 C         139.5462  142.5844  164.4052 C.ar    1  UNL1        0.0291
     10 C         139.1861  144.0383  164.3249 C.ar    1  UNL1        0.1416
     11 F         138.8171  144.7894  165.5699 F       1  UNL1       -0.2041
     12 C         139.1950  144.7412  162.9999 C.ar    1  UNL1        0.0488
     13 C         139.5640  143.9901  161.7549 C.ar    1  UNL1        0.0850
     14 N         139.5729  144.6930  160.4298 N.ar    1  UNL1       -0.2422
     15 C         139.9418  143.9419  159.1850 C.ar    1  UNL1        0.1175
     16 C         140.3020  142.4880  159.2652 C.ar    1  UNL1        0.0989
     17 C         140.8123  139.2954  161.4127 C.3     1  UNL1        0.1194
     18 C         139.5802  138.6417  161.9645 C.3     1  UNL1        0.0279
     19 C         139.7018  137.5799  163.0170 C.3     1  UNL1        0.0341
     20 C         141.0555  137.1717  163.5177 C.3     1  UNL1        0.1423
     21 O         142.2877  137.8254  162.9659 O.3     1  UNL1       -0.3518
     22 C         142.1660  138.8872  161.9134 C.3     1  UNL1        0.1647
     23 C         139.5373  141.8816  165.7303 C.ar    1  UNL1        0.0216
     24 C         139.1336  140.4392  165.8116 C.ar    1  UNL1        0.0064
     25 C         139.1247  139.7363  167.1366 C.ar    1  UNL1        0.0577
     26 C         139.5195  140.4758  168.3805 C.ar    1  UNL1        0.2249
     27 N         139.9233  141.9182  168.2992 N.ar    1  UNL1       -0.2101
     28 C         139.9322  142.6211  166.9742 C.ar    1  UNL1        0.1021
     29 O         139.5106  139.7730  169.7056 O.3     1  UNL1       -0.4602
     30 C         140.6635  139.9396  170.6507 C.3     1  UNL1        0.2085
     31 C         142.0526  139.5857  170.2089 C.3     1  UNL1        0.0647
     32 C         142.9569  140.6469  169.6558 C.3     1  UNL1        0.0759
     33 N         143.0459  140.8585  168.1735 N.3     1  UNL1       -0.2726
     34 C         142.8097  139.7111  167.2366 C.3     1  UNL1        0.0721
     35 C         142.8988  139.9227  165.7542 C.3     1  UNL1        0.0174
     36 C         143.2239  141.2817  165.2088 C.3     1  UNL1        0.0029
     37 C         143.4601  142.4290  166.1457 C.3     1  UNL1        0.0174
     38 C         143.3711  142.2175  167.6280 C.3     1  UNL1        0.0721
@<TRIPOS>BOND
     1     1     2    1
     2     2     3   ar
     3     3     4    2
     4     3     5   ar
     5    17     5    1
     6    17    18    1
     7    18    19    1
     8    19    20    1
     9    20    21    1
    10    21    22    1
    11     5     6   ar
    12     6     7   ar
    13     7     8   ar
    14     8     9   ar
    15     9    23    1
    16    23    24   ar
    17    24    25   ar
    18    25    26   ar
    19    26    29    1
    20    29    30    1
    21    30    31    1
    22    31    32    1
    23    32    33    1
    24    33    34    1
    25    34    35    1
    26    35    36    1
    27    36    37    1
    28    37    38    1
    29    26    27   ar
    30    27    28   ar
    31     9    10   ar
    32    10    11    1
    33    10    12   ar
    34    12    13   ar
    35    13    14   ar
    36    14    15   ar
    37    15    16   ar
    38    16     2   ar
    39    22    17    1
    40    16     6   ar
    41    13     7   ar
    42    28    23   ar
    43    38    33    1
@<TRIPOS>MOLECULE
*****
 38 43 0 0 0
SMALL
GASTEIGER

@<TRIPOS>ATOM
      1 C         139.8316  140.1653  170.3953 C.3     1  UNL1        0.1352
      2 N         140.0573  140.3040  168.9189 N.ar    1  UNL1       -0.2765
      3 C         139.2063  139.7079  167.8370 C.ar    1  UNL1        0.3317
      4 O         137.9802  138.8684  168.0416 O.2     1  UNL1       -0.2463
      5 N         139.7967  140.0988  166.5147 N.ar    1  UNL1       -0.2792
      6 C         141.0126  140.9364  166.7792 C.ar    1  UNL1        0.0826
      7 C         141.9939  141.6001  165.8592 C.ar    1  UNL1        0.0352
      8 C         141.8328  141.4732  164.3732 C.ar    1  UNL1        0.0053
      9 C         142.8141  142.1368  163.4531 C.ar    1  UNL1        0.0291
     10 C         143.9565  142.9273  164.0189 C.ar    1  UNL1        0.1416
     11 F         144.9378  143.5910  163.0987 F       1  UNL1       -0.2041
     12 C         144.1176  143.0542  165.5048 C.ar    1  UNL1        0.0488
     13 C         143.1362  142.3905  166.4250 C.ar    1  UNL1        0.0850
     14 N         143.2973  142.5174  167.9109 N.ar    1  UNL1       -0.2422
     15 C         142.3160  141.8538  168.8309 C.ar    1  UNL1        0.1175
     16 C         141.1736  141.0633  168.2651 C.ar    1  UNL1        0.0989
     17 C         139.2647  139.7187  165.1647 C.3     1  UNL1        0.1194
     18 C         139.7461  138.4662  164.4942 C.3     1  UNL1        0.0279
     19 C         139.2140  138.0862  163.1442 C.3     1  UNL1        0.0341
     20 C         138.2006  138.9585  162.4646 C.3     1  UNL1        0.1423
     21 O         137.7192  140.2110  163.1351 O.3     1  UNL1       -0.3518
     22 C         138.2512  140.5911  164.4851 C.3     1  UNL1        0.1647
     23 C         142.6531  142.0100  161.9671 C.ar    1  UNL1        0.0216
     24 C         142.0375  140.7735  161.3823 C.ar    1  UNL1        0.0064
     25 C         141.8765  140.6466  159.8964 C.ar    1  UNL1        0.0577
     26 C         142.3310  141.7562  158.9953 C.ar    1  UNL1        0.2249
     27 N         142.9466  142.9928  159.5802 N.ar    1  UNL1       -0.2101
     28 C         143.1076  143.1197  161.0660 C.ar    1  UNL1        0.1021
     29 O         142.1700  141.6294  157.5094 O.3     1  UNL1       -0.4602
     30 C         141.1447  142.4572  156.7927 C.3     1  UNL1        0.2085
     31 C         139.8707  142.8388  157.4865 C.3     1  UNL1        0.0647
     32 C         139.7533  144.1753  158.1572 C.3     1  UNL1        0.0759
     33 N         139.7484  144.2652  159.6545 N.3     1  UNL1       -0.2726
     34 C         139.1956  143.1355  160.4719 C.3     1  UNL1        0.0721
     35 C         139.1908  143.2254  161.9692 C.3     1  UNL1        0.0174
     36 C         139.7387  144.4450  162.6491 C.3     1  UNL1        0.0029
     37 C         140.2915  145.5748  161.8317 C.3     1  UNL1        0.0174
     38 C         140.2964  145.4849  160.3344 C.3     1  UNL1        0.0721
@<TRIPOS>BOND
     1     1     2    1
     2     2     3   ar
     3     3     4    2
     4     3     5   ar
     5    17     5    1
     6    17    18    1
     7    18    19    1
     8    19    20    1
     9    20    21    1
    10    21    22    1
    11     5     6   ar
    12     6     7   ar
    13     7     8   ar
    14     8     9   ar
    15     9    23    1
    16    23    24   ar
    17    24    25   ar
    18    25    26   ar
    19    26    29    1
    20    29    30    1
    21    30    31    1
    22    31    32    1
    23    32    33    1
    24    33    34    1
    25    34    35    1
    26    35    36    1
    27    36    37    1
    28    37    38    1
    29    26    27   ar
    30    27    28   ar
    31     9    10   ar
    32    10    11    1
    33    10    12   ar
    34    12    13   ar
    35    13    14   ar
    36    14    15   ar
    37    15    16   ar
    38    16     2   ar
    39    22    17    1
    40    16     6   ar
    41    13     7   ar
    42    28    23   ar
    43    38    33    1
@<TRIPOS>MOLECULE
*****
 38 43 0 0 0
SMALL
GASTEIGER

@<TRIPOS>ATOM
      1 C         141.2542  141.9200  170.6928 C.3     1  UNL1        0.1352
      2 N         141.4995  141.5004  169.2738 N.ar    1  UNL1       -0.2765
      3 C         142.6888  141.8706  168.4380 C.ar    1  UNL1        0.3317
      4 O         143.8416  142.7254  168.8745 O.2     1  UNL1       -0.2463
      5 N         142.5229  141.2360  167.0890 N.ar    1  UNL1       -0.2792
      6 C         141.2311  140.4736  167.0910 C.ar    1  UNL1        0.0826
      7 C         140.5491  139.6517  166.0379 C.ar    1  UNL1        0.0352
      8 C         141.1815  139.4883  164.6875 C.ar    1  UNL1        0.0053
      9 C         140.4995  138.6664  163.6344 C.ar    1  UNL1        0.0291
     10 C         139.1849  138.0078  163.9315 C.ar    1  UNL1        0.1416
     11 F         138.5028  137.1859  162.8782 F       1  UNL1       -0.2041
     12 C         138.5524  138.1712  165.2817 C.ar    1  UNL1        0.0488
     13 C         139.2345  138.9932  166.3349 C.ar    1  UNL1        0.0850
     14 N         138.6020  139.1566  167.6852 N.ar    1  UNL1       -0.2422
     15 C         139.2841  139.9785  168.7383 C.ar    1  UNL1        0.1175
     16 C         140.5986  140.6370  168.4413 C.ar    1  UNL1        0.0989
     17 C         143.4807  141.3447  165.9397 C.3     1  UNL1        0.1194
     18 C         143.7598  142.6819  165.3199 C.3     1  UNL1        0.0279
     19 C         144.7176  142.7906  164.1706 C.3     1  UNL1        0.0341
     20 C         145.3962  141.5622  163.6410 C.3     1  UNL1        0.1423
     21 O         145.1170  140.2250  164.2608 O.3     1  UNL1       -0.3518
     22 C         144.1593  140.1163  165.4101 C.3     1  UNL1        0.1647
     23 C         141.1320  138.5029  162.2840 C.ar    1  UNL1        0.0216
     24 C         140.4010  138.9533  161.0540 C.ar    1  UNL1        0.0064
     25 C         141.0335  138.7899  159.7038 C.ar    1  UNL1        0.0577
     26 C         142.3968  138.1761  159.5835 C.ar    1  UNL1        0.2249
     27 N         143.1277  137.7257  160.8135 N.ar    1  UNL1       -0.2101
     28 C         142.4953  137.8891  162.1638 C.ar    1  UNL1        0.1021
     29 O         143.0293  138.0127  158.2332 O.3     1  UNL1       -0.4602
     30 C         142.4444  137.0500  157.2426 C.3     1  UNL1        0.2085
     31 C         143.2622  135.8942  156.7473 C.3     1  UNL1        0.0647
     32 C         142.5912  134.6047  156.3773 C.3     1  UNL1        0.0759
     33 N         143.2014  133.2971  156.7871 N.3     1  UNL1       -0.2726
     34 C         144.4549  133.2799  157.6107 C.3     1  UNL1        0.0721
     35 C         145.0651  131.9723  158.0206 C.3     1  UNL1        0.0174
     36 C         144.4217  130.6820  157.6068 C.3     1  UNL1        0.0029
     37 C         143.1682  130.6993  156.7832 C.3     1  UNL1        0.0174
     38 C         142.5580  132.0068  156.3733 C.3     1  UNL1        0.0721
@<TRIPOS>BOND
     1     1     2    1
     2     2     3   ar
     3     3     4    2
     4     3     5   ar
     5    17     5    1
     6    17    18    1
     7    18    19    1
     8    19    20    1
     9    20    21    1
    10    21    22    1
    11     5     6   ar
    12     6     7   ar
    13     7     8   ar
    14     8     9   ar
    15     9    23    1
    16    23    24   ar
    17    24    25   ar
    18    25    26   ar
    19    26    29    1
    20    29    30    1
    21    30    31    1
    22    31    32    1
    23    32    33    1
    24    33    34    1
    25    34    35    1
    26    35    36    1
    27    36    37    1
    28    37    38    1
    29    26    27   ar
    30    27    28   ar
    31     9    10   ar
    32    10    11    1
    33    10    12   ar
    34    12    13   ar
    35    13    14   ar
    36    14    15   ar
    37    15    16   ar
    38    16     2   ar
    39    22    17    1
    40    16     6   ar
    41    13     7   ar
    42    28    23   ar
    43    38    33    1
@<TRIPOS>MOLECULE
*****
 38 43 0 0 0
SMALL
GASTEIGER

@<TRIPOS>ATOM
      1 C         140.2229  140.2583  170.6991 C.3     1  UNL1        0.1352
      2 N         140.3257  140.4342  169.2130 N.ar    1  UNL1       -0.2765
      3 C         139.3636  139.9005  168.1934 C.ar    1  UNL1        0.3317
      4 O         138.1297  139.0973  168.4808 O.2     1  UNL1       -0.2463
      5 N         139.8519  140.3111  166.8358 N.ar    1  UNL1       -0.2792
      6 C         141.1158  141.0984  167.0163 C.ar    1  UNL1        0.0826
      7 C         142.0379  141.7559  166.0328 C.ar    1  UNL1        0.0352
      8 C         141.7451  141.6799  164.5636 C.ar    1  UNL1        0.0053
      9 C         142.6672  142.3374  163.5800 C.ar    1  UNL1        0.0291
     10 C         143.8821  143.0710  164.0657 C.ar    1  UNL1        0.1416
     11 F         144.8042  143.7285  163.0820 F       1  UNL1       -0.2041
     12 C         144.1749  143.1471  165.5348 C.ar    1  UNL1        0.0488
     13 C         143.2528  142.4895  166.5184 C.ar    1  UNL1        0.0850
     14 N         143.5456  142.5656  167.9875 N.ar    1  UNL1       -0.2422
     15 C         142.6236  141.9081  168.9711 C.ar    1  UNL1        0.1175
     16 C         141.4086  141.1745  168.4855 C.ar    1  UNL1        0.0989
     17 C         139.1922  139.9905  165.5274 C.3     1  UNL1        0.1194
     18 C         138.4992  141.0717  164.7521 C.3     1  UNL1        0.0279
     19 C         137.8395  140.7511  163.4437 C.3     1  UNL1        0.0341
     20 C         137.8727  139.3495  162.9104 C.3     1  UNL1        0.1423
     21 O         138.5656  138.2684  163.6857 O.3     1  UNL1       -0.3518
     22 C         139.2253  138.5890  164.9941 C.3     1  UNL1        0.1647
     23 C         142.3744  142.2613  162.1108 C.ar    1  UNL1        0.0216
     24 C         141.0322  142.6831  161.5908 C.ar    1  UNL1        0.0064
     25 C         140.7393  142.6071  160.1216 C.ar    1  UNL1        0.0577
     26 C         141.7888  142.1093  159.1725 C.ar    1  UNL1        0.2249
     27 N         143.1310  141.6875  159.6926 N.ar    1  UNL1       -0.2101
     28 C         143.4238  141.7635  161.1617 C.ar    1  UNL1        0.1021
     29 O         141.4960  142.0332  157.7033 O.3     1  UNL1       -0.4602
     30 C         141.3924  140.6981  157.0273 C.3     1  UNL1        0.2085
     31 C         140.5571  139.6116  157.6370 C.3     1  UNL1        0.0647
     32 C         141.2123  138.3736  158.1736 C.3     1  UNL1        0.0759
     33 N         141.7585  138.3594  159.5705 N.3     1  UNL1       -0.2726
     34 C         140.8992  138.8051  160.7164 C.3     1  UNL1        0.0721
     35 C         141.4455  138.7908  162.1133 C.3     1  UNL1        0.0174
     36 C         142.8510  138.3309  162.3644 C.3     1  UNL1        0.0029
     37 C         143.7103  137.8852  161.2186 C.3     1  UNL1        0.0174
     38 C         143.1641  137.8994  159.8216 C.3     1  UNL1        0.0721
@<TRIPOS>BOND
     1     1     2    1
     2     2     3   ar
     3     3     4    2
     4     3     5   ar
     5    17     5    1
     6    17    18    1
     7    18    19    1
     8    19    20    1
     9    20    21    1
    10    21    22    1
    11     5     6   ar
    12     6     7   ar
    13     7     8   ar
    14     8     9   ar
    15     9    23    1
    16    23    24   ar
    17    24    25   ar
    18    25    26   ar
    19    26    29    1
    20    29    30    1
    21    30    31    1
    22    31    32    1
    23    32    33    1
    24    33    34    1
    25    34    35    1
    26    35    36    1
    27    36    37    1
    28    37    38    1
    29    26    27   ar
    30    27    28   ar
    31     9    10   ar
    32    10    11    1
    33    10    12   ar
    34    12    13   ar
    35    13    14   ar
    36    14    15   ar
    37    15    16   ar
    38    16     2   ar
    39    22    17    1
    40    16     6   ar
    41    13     7   ar
    42    28    23   ar
    43    38    33    1
@<TRIPOS>MOLECULE
*****
 38 43 0 0 0
SMALL
GASTEIGER

@<TRIPOS>ATOM
      1 C         139.3825  140.6275  169.9805 C.3     1  UNL1        0.1352
      2 N         139.8332  140.4612  168.5596 N.ar    1  UNL1       -0.2765
      3 C         139.1571  139.6272  167.5121 C.ar    1  UNL1        0.3317
      4 O         137.9115  138.8131  167.7016 O.2     1  UNL1       -0.2463
      5 N         139.9452  139.7502  166.2417 N.ar    1  UNL1       -0.2792
      6 C         141.1083  140.6602  166.5040 C.ar    1  UNL1        0.0826
      7 C         142.2216  141.1456  165.6236 C.ar    1  UNL1        0.0352
      8 C         142.2908  140.7061  164.1911 C.ar    1  UNL1        0.0053
      9 C         143.4040  141.1915  163.3107 C.ar    1  UNL1        0.0291
     10 C         144.4481  142.1162  163.8628 C.ar    1  UNL1        0.1416
     11 F         145.5613  142.6015  162.9823 F       1  UNL1       -0.2041
     12 C         144.3789  142.5556  165.2953 C.ar    1  UNL1        0.0488
     13 C         143.2656  142.0703  166.1757 C.ar    1  UNL1        0.0850
     14 N         143.1965  142.5097  167.6082 N.ar    1  UNL1       -0.2422
     15 C         142.0832  142.0244  168.4886 C.ar    1  UNL1        0.1175
     16 C         141.0392  141.0996  167.9365 C.ar    1  UNL1        0.0989
     17 C         139.6261  139.0808  164.9378 C.3     1  UNL1        0.1194
     18 C         138.6091  139.6834  164.0144 C.3     1  UNL1        0.0279
     19 C         138.2900  139.0139  162.7106 C.3     1  UNL1        0.0341
     20 C         138.9879  137.7418  162.3301 C.3     1  UNL1        0.1423
     21 O         140.0048  137.1392  163.2535 O.3     1  UNL1       -0.3518
     22 C         140.3239  137.8087  164.5573 C.3     1  UNL1        0.1647
     23 C         143.4732  140.7520  161.8781 C.ar    1  UNL1        0.0216
     24 C         143.3344  141.7608  160.7767 C.ar    1  UNL1        0.0064
     25 C         143.4036  141.3215  159.3441 C.ar    1  UNL1        0.0577
     26 C         143.6116  139.8734  159.0131 C.ar    1  UNL1        0.2249
     27 N         143.7504  138.8646  160.1145 N.ar    1  UNL1       -0.2101
     28 C         143.6812  139.3039  161.5470 C.ar    1  UNL1        0.1021
     29 O         143.6808  139.4340  157.5805 O.3     1  UNL1       -0.4602
     30 C         142.4306  139.0222  156.8611 C.3     1  UNL1        0.2085
     31 C         142.0505  137.5731  156.7874 C.3     1  UNL1        0.0647
     32 C         143.0923  136.5131  156.9902 C.3     1  UNL1        0.0759
     33 N         142.7874  135.0859  156.6440 N.3     1  UNL1       -0.2726
     34 C         141.7813  134.7714  155.5768 C.3     1  UNL1        0.0721
     35 C         141.4764  133.3441  155.2305 C.3     1  UNL1        0.0174
     36 C         142.1776  132.2312  155.9515 C.3     1  UNL1        0.0029
     37 C         143.1837  132.5457  157.0187 C.3     1  UNL1        0.0174
     38 C         143.4886  133.9729  157.3649 C.3     1  UNL1        0.0721
@<TRIPOS>BOND
     1     1     2    1
     2     2     3   ar
     3     3     4    2
     4     3     5   ar
     5    17     5    1
     6    17    18    1
     7    18    19    1
     8    19    20    1
     9    20    21    1
    10    21    22    1
    11     5     6   ar
    12     6     7   ar
    13     7     8   ar
    14     8     9   ar
    15     9    23    1
    16    23    24   ar
    17    24    25   ar
    18    25    26   ar
    19    26    29    1
    20    29    30    1
    21    30    31    1
    22    31    32    1
    23    32    33    1
    24    33    34    1
    25    34    35    1
    26    35    36    1
    27    36    37    1
    28    37    38    1
    29    26    27   ar
    30    27    28   ar
    31     9    10   ar
    32    10    11    1
    33    10    12   ar
    34    12    13   ar
    35    13    14   ar
    36    14    15   ar
    37    15    16   ar
    38    16     2   ar
    39    22    17    1
    40    16     6   ar
    41    13     7   ar
    42    28    23   ar
    43    38    33    1
@<TRIPOS>MOLECULE
*****
 38 43 0 0 0
SMALL
GASTEIGER

@<TRIPOS>ATOM
      1 C         141.3926  144.8982  156.6683 C.3     1  UNL1        0.1352
      2 N         141.4426  144.3761  158.0736 N.ar    1  UNL1       -0.2765
      3 C         140.6994  144.9370  159.2496 C.ar    1  UNL1        0.3317
      4 O         139.7756  146.1187  159.2268 O.2     1  UNL1       -0.2463
      5 N         141.0422  144.1089  160.4524 N.ar    1  UNL1       -0.2792
      6 C         141.9972  143.0362  160.0199 C.ar    1  UNL1        0.0826
      7 C         142.6734  141.9303  160.7747 C.ar    1  UNL1        0.0352
      8 C         142.4259  141.7652  162.2449 C.ar    1  UNL1        0.0053
      9 C         143.1021  140.6594  162.9998 C.ar    1  UNL1        0.0291
     10 C         144.0258  139.7186  162.2844 C.ar    1  UNL1        0.1416
     11 F         144.7021  138.6127  163.0394 F       1  UNL1       -0.2041
     12 C         144.2734  139.8837  160.8143 C.ar    1  UNL1        0.0488
     13 C         143.5971  140.9896  160.0594 C.ar    1  UNL1        0.0850
     14 N         143.8446  141.1546  158.5892 N.ar    1  UNL1       -0.2422
     15 C         143.1684  142.2605  157.8344 C.ar    1  UNL1        0.1175
     16 C         142.2447  143.2012  158.5497 C.ar    1  UNL1        0.0989
     17 C         140.5213  144.3170  161.8436 C.3     1  UNL1        0.1194
     18 C         141.4532  144.7499  162.9364 C.3     1  UNL1        0.0279
     19 C         140.9324  144.9580  164.3276 C.3     1  UNL1        0.0341
     20 C         139.4797  144.7333  164.6261 C.3     1  UNL1        0.1423
     21 O         138.5478  144.3003  163.5333 O.3     1  UNL1       -0.3518
     22 C         139.0687  144.0922  162.1421 C.3     1  UNL1        0.1647
     23 C         142.8546  140.4943  164.4700 C.ar    1  UNL1        0.0216
     24 C         142.9737  141.6747  165.3878 C.ar    1  UNL1        0.0064
     25 C         142.7263  141.5096  166.8580 C.ar    1  UNL1        0.0577
     26 C         142.3597  140.1641  167.4104 C.ar    1  UNL1        0.2249
     27 N         142.2406  138.9837  166.4926 N.ar    1  UNL1       -0.2101
     28 C         142.4880  139.1487  165.0224 C.ar    1  UNL1        0.1021
     29 O         142.1122  139.9990  168.8806 O.3     1  UNL1       -0.4602
     30 C         140.7101  139.8540  169.3935 C.3     1  UNL1        0.2085
     31 C         139.5628  140.4208  168.6109 C.3     1  UNL1        0.0647
     32 C         138.7204  139.5207  167.7564 C.3     1  UNL1        0.0759
     33 N         138.8531  139.5644  166.2629 N.3     1  UNL1       -0.2726
     34 C         139.0439  140.8784  165.5651 C.3     1  UNL1        0.0721
     35 C         139.1766  140.9221  164.0715 C.3     1  UNL1        0.0174
     36 C         139.1184  139.6519  163.2759 C.3     1  UNL1        0.0029
     37 C         138.9275  138.3379  163.9738 C.3     1  UNL1        0.0174
     38 C         138.7949  138.2941  165.4672 C.3     1  UNL1        0.0721
@<TRIPOS>BOND
     1     1     2    1
     2     2     3   ar
     3     3     4    2
     4     3     5   ar
     5    17     5    1
     6    17    18    1
     7    18    19    1
     8    19    20    1
     9    20    21    1
    10    21    22    1
    11     5     6   ar
    12     6     7   ar
    13     7     8   ar
    14     8     9   ar
    15     9    23    1
    16    23    24   ar
    17    24    25   ar
    18    25    26   ar
    19    26    29    1
    20    29    30    1
    21    30    31    1
    22    31    32    1
    23    32    33    1
    24    33    34    1
    25    34    35    1
    26    35    36    1
    27    36    37    1
    28    37    38    1
    29    26    27   ar
    30    27    28   ar
    31     9    10   ar
    32    10    11    1
    33    10    12   ar
    34    12    13   ar
    35    13    14   ar
    36    14    15   ar
    37    15    16   ar
    38    16     2   ar
    39    22    17    1
    40    16     6   ar
    41    13     7   ar
    42    28    23   ar
    43    38    33    1
@<TRIPOS>MOLECULE
*****
 38 43 0 0 0
SMALL
GASTEIGER

@<TRIPOS>ATOM
      1 C         139.8196  144.6853  156.1315 C.3     1  UNL1        0.1352
      2 N         140.2739  144.0387  157.4064 N.ar    1  UNL1       -0.2765
      3 C         141.3136  144.5750  158.3452 C.ar    1  UNL1        0.3317
      4 O         142.0815  145.8522  158.1740 O.2     1  UNL1       -0.2463
      5 N         141.4505  143.6100  159.4854 N.ar    1  UNL1       -0.2792
      6 C         140.4955  142.4773  159.2513 C.ar    1  UNL1        0.0826
      7 C         140.1941  141.2388  160.0420 C.ar    1  UNL1        0.0352
      8 C         140.9213  140.9738  161.3270 C.ar    1  UNL1        0.0053
      9 C         140.6198  139.7354  162.1177 C.ar    1  UNL1        0.0291
     10 C         139.5912  138.7619  161.6236 C.ar    1  UNL1        0.1416
     11 F         139.2898  137.5233  162.4144 F       1  UNL1       -0.2041
     12 C         138.8640  139.0268  160.3387 C.ar    1  UNL1        0.0488
     13 C         139.1654  140.2653  159.5479 C.ar    1  UNL1        0.0850
     14 N         138.4382  140.5302  158.2630 N.ar    1  UNL1       -0.2422
     15 C         138.7397  141.7687  157.4723 C.ar    1  UNL1        0.1175
     16 C         139.7683  142.7422  157.9664 C.ar    1  UNL1        0.0989
     17 C         142.3794  143.7527  160.6545 C.3     1  UNL1        0.1194
     18 C         141.9453  144.5201  161.8681 C.3     1  UNL1        0.0279
     19 C         142.8742  144.6627  163.0372 C.3     1  UNL1        0.0341
     20 C         144.2372  144.0380  162.9928 C.3     1  UNL1        0.1423
     21 O         144.6713  143.2706  161.7793 O.3     1  UNL1       -0.3518
     22 C         143.7424  143.1280  160.6102 C.3     1  UNL1        0.1647
     23 C         141.3470  139.4704  163.4027 C.ar    1  UNL1        0.0216
     24 C         141.2419  138.1265  164.0605 C.ar    1  UNL1        0.0064
     25 C         141.9690  137.8615  165.3454 C.ar    1  UNL1        0.0577
     26 C         142.8013  138.9404  165.9724 C.ar    1  UNL1        0.2249
     27 N         142.9065  140.2843  165.3146 N.ar    1  UNL1       -0.2101
     28 C         142.1793  140.5493  164.0297 C.ar    1  UNL1        0.1021
     29 O         143.5285  138.6754  167.2574 O.3     1  UNL1       -0.4602
     30 C         142.8646  138.9708  168.5696 C.3     1  UNL1        0.2085
     31 C         141.9816  140.1753  168.7090 C.3     1  UNL1        0.0647
     32 C         140.4911  140.0259  168.6295 C.3     1  UNL1        0.0759
     33 N         139.7710  140.3573  167.3561 N.3     1  UNL1       -0.2726
     34 C         138.8386  139.3570  166.7396 C.3     1  UNL1        0.0721
     35 C         138.1185  139.6884  165.4662 C.3     1  UNL1        0.0174
     36 C         138.3307  141.0201  164.8093 C.3     1  UNL1        0.0029
     37 C         139.2631  142.0204  165.4258 C.3     1  UNL1        0.0174
     38 C         139.9832  141.6890  166.6992 C.3     1  UNL1        0.0721
@<TRIPOS>BOND
     1     1     2    1
     2     2     3   ar
     3     3     4    2
     4     3     5   ar
     5    17     5    1
     6    17    18    1
     7    18    19    1
     8    19    20    1
     9    20    21    1
    10    21    22    1
    11     5     6   ar
    12     6     7   ar
    13     7     8   ar
    14     8     9   ar
    15     9    23    1
    16    23    24   ar
    17    24    25   ar
    18    25    26   ar
    19    26    29    1
    20    29    30    1
    21    30    31    1
    22    31    32    1
    23    32    33    1
    24    33    34    1
    25    34    35    1
    26    35    36    1
    27    36    37    1
    28    37    38    1
    29    26    27   ar
    30    27    28   ar
    31     9    10   ar
    32    10    11    1
    33    10    12   ar
    34    12    13   ar
    35    13    14   ar
    36    14    15   ar
    37    15    16   ar
    38    16     2   ar
    39    22    17    1
    40    16     6   ar
    41    13     7   ar
    42    28    23   ar
    43    38    33    1
