@<TRIPOS>MOLECULE
*****
 36 39 0 0 0
SMALL
GASTEIGER

@<TRIPOS>ATOM
      1 C         141.8617  138.9702  161.4709 C.ar    1  UNL1        0.2204
      2 N         140.5208  139.1621  160.8267 N.ar    1  UNL1       -0.2089
      3 C         140.3218  138.7967  159.3856 C.ar    1  UNL1        0.1402
      4 C         141.4639  138.2394  158.5886 C.ar    1  UNL1        0.1773
      5 C         142.8049  138.0476  159.2328 C.ar    1  UNL1        0.1402
      6 N         143.0038  138.4130  160.6740 N.ar    1  UNL1       -0.2089
      7 C         141.1893  136.9945  163.6260 C.3     1  UNL1        0.0233
      8 C         141.7244  138.3478  163.9896 C.3     1  UNL1        0.0955
      9 C         141.9233  138.7132  165.4307 C.3     1  UNL1        0.1149
     10 N         142.4585  140.0665  165.7943 N.pl3   1  UNL1       -0.2586
     11 C         142.7947  141.0544  164.7168 C.3     1  UNL1        0.1167
     12 C         142.5958  140.6889  163.2757 C.3     1  UNL1        0.1151
     13 N         142.0606  139.3357  162.9121 N.pl3   1  UNL1       -0.2764
     14 C         142.6574  140.4319  167.2355 C.ar    1  UNL1        0.3185
     15 N         142.9435  141.8057  167.7654 N.ar    1  UNL1       -0.1701
     16 C         143.0680  141.7105  169.2572 C.ar    1  UNL1        0.2766
     17 N         142.8588  140.2778  169.6493 N.ar    1  UNL1       -0.0499
     18 O         142.6050  139.4876  168.3998 O.2     1  UNL1       -0.3164
     19 C         143.3519  142.8482  170.1927 C.3     1  UNL1        0.4557
     20 F         143.6357  143.9859  171.1281 F       1  UNL1       -0.1631
     21 F         144.8245  142.6456  169.9923 F       1  UNL1       -0.1631
     22 F         141.8792  143.0509  170.3931 F       1  UNL1       -0.1631
     23 O         141.2650  137.8741  157.1475 O.3     1  UNL1       -0.4674
     24 C         142.3494  137.1574  156.3988 C.3     1  UNL1        0.2344
     25 C         142.4235  135.6597  156.4371 C.ar    1  UNL1        0.0487
     26 C         143.3436  134.9789  157.4065 C.ar    1  UNL1        0.0031
     27 C         143.4177  133.4811  157.4447 C.ar    1  UNL1        0.0197
     28 C         142.5716  132.6644  156.5136 C.ar    1  UNL1        0.0926
     29 C         141.6514  133.3452  155.5443 C.ar    1  UNL1        0.0492
     30 C         141.5773  134.8429  155.5060 C.ar    1  UNL1        0.1411
     31 F         140.6572  135.5238  154.5366 F       1  UNL1       -0.2043
     32 N         142.6457  131.1667  156.5519 N.2     1  UNL1       -0.1957
     33 S         143.8176  130.4579  155.9403 S.3     1  UNL1        0.0737
     34 C         144.4087  131.7780  155.5430 C.3     1  UNL1        0.1173
     35 C         143.2265  129.1377  156.3376 C.3     1  UNL1        0.1173
     36 O         144.9896  129.7490  155.3287 O.2     1  UNL1       -0.2458
@<TRIPOS>BOND
     1     8     7    1
     2     8     9    1
     3     9    10    1
     4    10    14    1
     5    14    15   ar
     6    15    16   ar
     7    16    19    1
     8    19    20    1
     9    19    21    1
    10    19    22    1
    11    16    17   ar
    12    17    18   ar
    13    10    11    1
    14    11    12    1
    15    12    13    1
    16    13     1    1
    17     1     2   ar
    18     2     3   ar
    19     3     4   ar
    20     4    23    1
    21    23    24    1
    22    24    25    1
    23    25    26   ar
    24    26    27   ar
    25    27    28   ar
    26    28    32    1
    27    32    33    2
    28    33    34    1
    29    33    35    1
    30    33    36    2
    31    28    29   ar
    32    29    30   ar
    33    30    31    1
    34     4     5   ar
    35     5     6   ar
    36    13     8    1
    37     6     1   ar
    38    18    14   ar
    39    30    25   ar
@<TRIPOS>MOLECULE
*****
 36 39 0 0 0
SMALL
GASTEIGER

@<TRIPOS>ATOM
      1 C         140.0739  143.5832  160.8604 C.ar    1  UNL1        0.2204
      2 N         140.9569  144.7933  160.7834 N.ar    1  UNL1       -0.2089
      3 C         141.1419  145.5048  159.4759 C.ar    1  UNL1        0.1402
      4 C         140.4438  145.0062  158.2454 C.ar    1  UNL1        0.1773
      5 C         139.5608  143.7961  158.3224 C.ar    1  UNL1        0.1402
      6 N         139.3759  143.0846  159.6299 N.ar    1  UNL1       -0.2089
      7 C         138.0381  144.5702  162.8305 C.3     1  UNL1        0.0233
      8 C         138.8711  143.3652  163.1530 C.3     1  UNL1        0.0955
      9 C         138.6863  142.6537  164.4604 C.3     1  UNL1        0.1149
     10 N         139.5192  141.4486  164.7829 N.pl3   1  UNL1       -0.2586
     11 C         140.5371  140.9551  163.7979 C.3     1  UNL1        0.1167
     12 C         140.7220  141.6666  162.4904 C.3     1  UNL1        0.1151
     13 N         139.8890  142.8717  162.1680 N.pl3   1  UNL1       -0.2764
     14 C         139.3343  140.7371  166.0905 C.ar    1  UNL1        0.3185
     15 N         139.9578  141.1217  167.3994 N.ar    1  UNL1       -0.1701
     16 C         139.5023  140.1384  168.4365 C.ar    1  UNL1        0.2766
     17 N         138.5972  139.1461  167.7685 N.ar    1  UNL1       -0.0499
     18 O         138.4934  139.5161  166.3186 O.2     1  UNL1       -0.3164
     19 C         139.8846  140.1460  169.8869 C.3     1  UNL1        0.4557
     20 F         140.2670  140.1537  171.3374 F       1  UNL1       -0.1631
     21 F         141.1165  139.3525  169.5663 F       1  UNL1       -0.1631
     22 F         138.6527  140.9396  170.2075 F       1  UNL1       -0.1631
     23 O         140.6288  145.7177  156.9379 O.3     1  UNL1       -0.4674
     24 C         139.4322  146.1603  156.1491 C.3     1  UNL1        0.2344
     25 C         139.4306  147.5017  155.4779 C.ar    1  UNL1        0.0487
     26 C         140.0157  147.6542  154.1052 C.ar    1  UNL1        0.0031
     27 C         140.0142  148.9957  153.4340 C.ar    1  UNL1        0.0197
     28 C         139.4275  150.1847  154.1356 C.ar    1  UNL1        0.0926
     29 C         138.8424  150.0322  155.5083 C.ar    1  UNL1        0.0492
     30 C         138.8439  148.6907  156.1795 C.ar    1  UNL1        0.1411
     31 F         138.2588  148.5382  157.5522 F       1  UNL1       -0.2043
     32 N         139.4260  151.5261  153.4644 N.2     1  UNL1       -0.1957
     33 S         140.5722  152.4708  153.6737 S.3     1  UNL1        0.0737
     34 C         141.2357  151.4672  154.5695 C.3     1  UNL1        0.1173
     35 C         139.9086  153.4744  152.7778 C.3     1  UNL1        0.1173
     36 O         141.7184  153.4155  153.8829 O.2     1  UNL1       -0.2458
@<TRIPOS>BOND
     1     8     7    1
     2     8     9    1
     3     9    10    1
     4    10    14    1
     5    14    15   ar
     6    15    16   ar
     7    16    19    1
     8    19    20    1
     9    19    21    1
    10    19    22    1
    11    16    17   ar
    12    17    18   ar
    13    10    11    1
    14    11    12    1
    15    12    13    1
    16    13     1    1
    17     1     2   ar
    18     2     3   ar
    19     3     4   ar
    20     4    23    1
    21    23    24    1
    22    24    25    1
    23    25    26   ar
    24    26    27   ar
    25    27    28   ar
    26    28    32    1
    27    32    33    2
    28    33    34    1
    29    33    35    1
    30    33    36    2
    31    28    29   ar
    32    29    30   ar
    33    30    31    1
    34     4     5   ar
    35     5     6   ar
    36    13     8    1
    37     6     1   ar
    38    18    14   ar
    39    30    25   ar
@<TRIPOS>MOLECULE
*****
 36 39 0 0 0
SMALL
GASTEIGER

@<TRIPOS>ATOM
      1 C         140.7615  138.4956  161.0080 C.ar    1  UNL1        0.2204
      2 N         139.7058  138.7246  159.9673 N.ar    1  UNL1       -0.2089
      3 C         140.0113  138.4715  158.5207 C.ar    1  UNL1        0.1402
      4 C         141.3726  137.9895  158.1148 C.ar    1  UNL1        0.1773
      5 C         142.4283  137.7605  159.1555 C.ar    1  UNL1        0.1402
      6 N         142.1227  138.0136  160.6021 N.ar    1  UNL1       -0.2089
      7 C         141.4822  141.1272  162.2553 C.3     1  UNL1        0.0233
      8 C         140.8163  140.0645  163.0782 C.3     1  UNL1        0.0955
      9 C         140.5107  140.3175  164.5248 C.3     1  UNL1        0.1149
     10 N         139.8448  139.2548  165.3477 N.pl3   1  UNL1       -0.2586
     11 C         139.4845  137.9391  164.7241 C.3     1  UNL1        0.1167
     12 C         139.7900  137.6860  163.2775 C.3     1  UNL1        0.1151
     13 N         140.4559  138.7487  162.4546 N.pl3   1  UNL1       -0.2764
     14 C         139.5392  139.5079  166.7943 C.ar    1  UNL1        0.3185
     15 N         140.3939  140.2819  167.7537 N.ar    1  UNL1       -0.1701
     16 C         139.7082  140.2838  169.0878 C.ar    1  UNL1        0.2766
     17 N         138.4297  139.5109  168.9530 N.ar    1  UNL1       -0.0499
     18 O         138.3253  139.0314  167.5355 O.2     1  UNL1       -0.3164
     19 C         140.2125  140.9429  170.3374 C.3     1  UNL1        0.4557
     20 F         140.7167  141.6019  171.5869 F       1  UNL1       -0.1631
     21 F         141.0850  139.7541  170.6122 F       1  UNL1       -0.1631
     22 F         139.3400  142.1316  170.0625 F       1  UNL1       -0.1631
     23 O         141.6781  137.7364  156.6682 O.3     1  UNL1       -0.4674
     24 C         142.8750  136.9167  156.2867 C.3     1  UNL1        0.2344
     25 C         142.8176  135.4203  156.3729 C.ar    1  UNL1        0.0487
     26 C         143.6905  134.6914  157.3510 C.ar    1  UNL1        0.0031
     27 C         143.6331  133.1949  157.4372 C.ar    1  UNL1        0.0197
     28 C         142.7029  132.4275  156.5453 C.ar    1  UNL1        0.0926
     29 C         141.8300  133.1564  155.5672 C.ar    1  UNL1        0.0492
     30 C         141.8873  134.6528  155.4810 C.ar    1  UNL1        0.1411
     31 F         141.0144  135.3817  154.5028 F       1  UNL1       -0.2043
     32 N         142.6455  130.9311  156.6315 N.2     1  UNL1       -0.1957
     33 S         143.6421  130.0979  155.8814 S.3     1  UNL1        0.0737
     34 C         144.2837  131.3447  155.3488 C.3     1  UNL1        0.1173
     35 C         143.0004  128.8510  156.4140 C.3     1  UNL1        0.1173
     36 O         144.6387  129.2646  155.1314 O.2     1  UNL1       -0.2458
@<TRIPOS>BOND
     1     8     7    1
     2     8     9    1
     3     9    10    1
     4    10    14    1
     5    14    15   ar
     6    15    16   ar
     7    16    19    1
     8    19    20    1
     9    19    21    1
    10    19    22    1
    11    16    17   ar
    12    17    18   ar
    13    10    11    1
    14    11    12    1
    15    12    13    1
    16    13     1    1
    17     1     2   ar
    18     2     3   ar
    19     3     4   ar
    20     4    23    1
    21    23    24    1
    22    24    25    1
    23    25    26   ar
    24    26    27   ar
    25    27    28   ar
    26    28    32    1
    27    32    33    2
    28    33    34    1
    29    33    35    1
    30    33    36    2
    31    28    29   ar
    32    29    30   ar
    33    30    31    1
    34     4     5   ar
    35     5     6   ar
    36    13     8    1
    37     6     1   ar
    38    18    14   ar
    39    30    25   ar
@<TRIPOS>MOLECULE
*****
 36 39 0 0 0
SMALL
GASTEIGER

@<TRIPOS>ATOM
      1 C         139.4117  142.7185  159.6538 C.ar    1  UNL1        0.2204
      2 N         138.2555  142.8381  160.6020 N.ar    1  UNL1       -0.2089
      3 C         138.0877  141.8408  161.7097 C.ar    1  UNL1        0.1402
      4 C         139.0762  140.7238  161.8694 C.ar    1  UNL1        0.1773
      5 C         140.2323  140.6042  160.9213 C.ar    1  UNL1        0.1402
      6 N         140.4001  141.6016  159.8135 N.ar    1  UNL1       -0.2089
      7 C         140.7685  145.3402  160.1885 C.3     1  UNL1        0.0233
      8 C         140.2578  145.0267  158.8133 C.3     1  UNL1        0.0955
      9 C         140.4256  146.0240  157.7056 C.3     1  UNL1        0.1149
     10 N         139.9149  145.7104  156.3305 N.pl3   1  UNL1       -0.2586
     11 C         139.2365  144.3996  156.0631 C.3     1  UNL1        0.1167
     12 C         139.0688  143.4023  157.1709 C.3     1  UNL1        0.1151
     13 N         139.5794  143.7159  158.5460 N.pl3   1  UNL1       -0.2764
     14 C         140.0827  146.7078  155.2226 C.ar    1  UNL1        0.3185
     15 N         139.4171  148.0492  155.1357 N.ar    1  UNL1       -0.1701
     16 C         139.8685  148.7093  153.8666 C.ar    1  UNL1        0.2766
     17 N         140.8132  147.7758  153.1692 N.ar    1  UNL1       -0.0499
     18 O         140.9455  146.5388  154.0073 O.2     1  UNL1       -0.3164
     19 C         139.4490  150.0648  153.3803 C.3     1  UNL1        0.4557
     20 F         139.0295  151.4204  152.8940 F       1  UNL1       -0.1631
     21 F         139.1390  150.4745  154.7896 F       1  UNL1       -0.1631
     22 F         139.7590  149.6552  151.9710 F       1  UNL1       -0.1631
     23 O         138.9084  139.7265  162.9772 O.3     1  UNL1       -0.4674
     24 C         138.0645  140.0654  164.1701 C.3     1  UNL1        0.2344
     25 C         138.7138  140.3460  165.4928 C.ar    1  UNL1        0.0487
     26 C         139.6310  141.5233  165.6433 C.ar    1  UNL1        0.0031
     27 C         140.2803  141.8039  166.9661 C.ar    1  UNL1        0.0197
     28 C         140.0124  140.9072  168.1383 C.ar    1  UNL1        0.0926
     29 C         139.0951  139.7299  167.9878 C.ar    1  UNL1        0.0492
     30 C         138.4458  139.4493  166.6651 C.ar    1  UNL1        0.1411
     31 F         137.5286  138.2720  166.5145 F       1  UNL1       -0.2043
     32 N         140.6617  141.1877  169.4610 N.2     1  UNL1       -0.1957
     33 S         141.9695  140.5397  169.8070 S.3     1  UNL1        0.0737
     34 C         141.9748  139.8416  168.4794 C.3     1  UNL1        0.1173
     35 C         141.9641  141.2379  171.1347 C.3     1  UNL1        0.1173
     36 O         143.2773  139.8917  170.1531 O.2     1  UNL1       -0.2458
@<TRIPOS>BOND
     1     8     7    1
     2     8     9    1
     3     9    10    1
     4    10    14    1
     5    14    15   ar
     6    15    16   ar
     7    16    19    1
     8    19    20    1
     9    19    21    1
    10    19    22    1
    11    16    17   ar
    12    17    18   ar
    13    10    11    1
    14    11    12    1
    15    12    13    1
    16    13     1    1
    17     1     2   ar
    18     2     3   ar
    19     3     4   ar
    20     4    23    1
    21    23    24    1
    22    24    25    1
    23    25    26   ar
    24    26    27   ar
    25    27    28   ar
    26    28    32    1
    27    32    33    2
    28    33    34    1
    29    33    35    1
    30    33    36    2
    31    28    29   ar
    32    29    30   ar
    33    30    31    1
    34     4     5   ar
    35     5     6   ar
    36    13     8    1
    37     6     1   ar
    38    18    14   ar
    39    30    25   ar
@<TRIPOS>MOLECULE
*****
 36 39 0 0 0
SMALL
GASTEIGER

@<TRIPOS>ATOM
      1 C         141.0746  141.3163  159.0405 C.ar    1  UNL1        0.2204
      2 N         139.6375  141.4956  159.4309 N.ar    1  UNL1       -0.2089
      3 C         139.1490  142.8341  159.8997 C.ar    1  UNL1        0.1402
      4 C         140.0977  143.9934  159.9779 C.ar    1  UNL1        0.1773
      5 C         141.5349  143.8141  159.5875 C.ar    1  UNL1        0.1402
      6 N         142.0233  142.4754  159.1187 N.ar    1  UNL1       -0.2089
      7 C         142.3579  139.4235  160.9824 C.3     1  UNL1        0.0233
      8 C         142.2046  139.0313  159.5427 C.3     1  UNL1        0.0955
      9 C         142.6930  137.6928  159.0740 C.3     1  UNL1        0.1149
     10 N         142.5398  137.3006  157.6343 N.pl3   1  UNL1       -0.2586
     11 C         141.8982  138.2469  156.6633 C.3     1  UNL1        0.1167
     12 C         141.4098  139.5854  157.1321 C.3     1  UNL1        0.1151
     13 N         141.5630  139.9776  158.5718 N.pl3   1  UNL1       -0.2764
     14 C         143.0282  135.9620  157.1655 C.ar    1  UNL1        0.3185
     15 N         143.4018  134.8034  158.0419 N.ar    1  UNL1       -0.1701
     16 C         143.8332  133.6723  157.1562 C.ar    1  UNL1        0.2766
     17 N         143.7263  134.1319  155.7323 N.ar    1  UNL1       -0.0499
     18 O         143.2288  135.5470  155.7381 O.2     1  UNL1       -0.3164
     19 C         144.2912  132.3193  157.6139 C.3     1  UNL1        0.4557
     20 F         144.7491  130.9662  158.0716 F       1  UNL1       -0.1631
     21 F         143.0952  131.6932  156.9599 F       1  UNL1       -0.1631
     22 F         145.4872  132.9453  158.2679 F       1  UNL1       -0.1631
     23 O         139.6093  145.3319  160.4466 O.3     1  UNL1       -0.4674
     24 C         140.0239  145.8531  161.7907 C.3     1  UNL1        0.2344
     25 C         140.0280  144.9398  162.9806 C.ar    1  UNL1        0.0487
     26 C         141.3252  144.5648  163.6338 C.ar    1  UNL1        0.0031
     27 C         141.3293  143.6514  164.8237 C.ar    1  UNL1        0.0197
     28 C         140.0362  143.1131  165.3604 C.ar    1  UNL1        0.0926
     29 C         138.7390  143.4881  164.7071 C.ar    1  UNL1        0.0492
     30 C         138.7349  144.4014  163.5173 C.ar    1  UNL1        0.1411
     31 F         137.4377  144.7763  162.8641 F       1  UNL1       -0.2043
     32 N         140.0403  142.1998  166.5502 N.2     1  UNL1       -0.1957
     33 S         140.0707  140.7130  166.3544 S.3     1  UNL1        0.0737
     34 C         140.0836  140.9091  164.8673 C.3     1  UNL1        0.1173
     35 C         140.0579  140.5168  167.8414 C.3     1  UNL1        0.1173
     36 O         140.1012  139.2261  166.1585 O.2     1  UNL1       -0.2458
@<TRIPOS>BOND
     1     8     7    1
     2     8     9    1
     3     9    10    1
     4    10    14    1
     5    14    15   ar
     6    15    16   ar
     7    16    19    1
     8    19    20    1
     9    19    21    1
    10    19    22    1
    11    16    17   ar
    12    17    18   ar
    13    10    11    1
    14    11    12    1
    15    12    13    1
    16    13     1    1
    17     1     2   ar
    18     2     3   ar
    19     3     4   ar
    20     4    23    1
    21    23    24    1
    22    24    25    1
    23    25    26   ar
    24    26    27   ar
    25    27    28   ar
    26    28    32    1
    27    32    33    2
    28    33    34    1
    29    33    35    1
    30    33    36    2
    31    28    29   ar
    32    29    30   ar
    33    30    31    1
    34     4     5   ar
    35     5     6   ar
    36    13     8    1
    37     6     1   ar
    38    18    14   ar
    39    30    25   ar
@<TRIPOS>MOLECULE
*****
 36 39 0 0 0
SMALL
GASTEIGER

@<TRIPOS>ATOM
      1 C         141.6474  143.6584  159.6442 C.ar    1  UNL1        0.2204
      2 N         140.5372  142.6877  159.9184 N.ar    1  UNL1       -0.2089
      3 C         139.4302  143.0606  160.8593 C.ar    1  UNL1        0.1402
      4 C         139.4333  144.4042  161.5261 C.ar    1  UNL1        0.1773
      5 C         140.5435  145.3750  161.2519 C.ar    1  UNL1        0.1402
      6 N         141.6505  145.0021  160.3109 N.ar    1  UNL1       -0.2089
      7 C         144.2608  142.6567  160.7244 C.3     1  UNL1        0.0233
      8 C         144.0611  142.7847  159.2432 C.3     1  UNL1        0.0955
      9 C         145.1680  142.4117  158.3022 C.3     1  UNL1        0.1149
     10 N         144.9683  142.5397  156.8211 N.pl3   1  UNL1       -0.2586
     11 C         143.6617  143.0405  156.2810 C.3     1  UNL1        0.1167
     12 C         142.5547  143.4134  157.2220 C.3     1  UNL1        0.1151
     13 N         142.7544  143.2855  158.7031 N.pl3   1  UNL1       -0.2764
     14 C         146.0754  142.1667  155.8801 C.ar    1  UNL1        0.3185
     15 N         147.5424  142.1889  156.1917 N.ar    1  UNL1       -0.1701
     16 C         148.2834  141.7420  154.9665 C.ar    1  UNL1        0.2766
     17 N         147.2742  141.4437  153.8975 N.ar    1  UNL1       -0.0499
     18 O         145.9096  141.7062  154.4622 O.2     1  UNL1       -0.3164
     19 C         149.7721  141.6157  154.8335 C.3     1  UNL1        0.4557
     20 F         151.2609  141.4893  154.7005 F       1  UNL1       -0.1631
     21 F         149.6105  141.2260  153.3940 F       1  UNL1       -0.1631
     22 F         149.9338  142.0053  156.2729 F       1  UNL1       -0.1631
     23 O         138.3263  144.7771  162.4671 O.3     1  UNL1       -0.4674
     24 C         137.6584  143.7201  163.2958 C.3     1  UNL1        0.2344
     25 C         138.4359  142.9929  164.3524 C.ar    1  UNL1        0.0487
     26 C         139.3973  143.7430  165.2259 C.ar    1  UNL1        0.0031
     27 C         140.1749  143.0156  166.2826 C.ar    1  UNL1        0.0197
     28 C         139.9910  141.5383  166.4657 C.ar    1  UNL1        0.0926
     29 C         139.0295  140.7882  165.5922 C.ar    1  UNL1        0.0492
     30 C         138.2520  141.5154  164.5356 C.ar    1  UNL1        0.1411
     31 F         137.2906  140.7654  163.6620 F       1  UNL1       -0.2043
     32 N         140.7685  140.8110  167.5224 N.2     1  UNL1       -0.1957
     33 S         141.9919  140.0280  167.1479 S.3     1  UNL1        0.0737
     34 C         141.8005  140.4158  165.7116 C.3     1  UNL1        0.1173
     35 C         142.1833  139.6403  168.5842 C.3     1  UNL1        0.1173
     36 O         143.2153  139.2451  166.7735 O.2     1  UNL1       -0.2458
@<TRIPOS>BOND
     1     8     7    1
     2     8     9    1
     3     9    10    1
     4    10    14    1
     5    14    15   ar
     6    15    16   ar
     7    16    19    1
     8    19    20    1
     9    19    21    1
    10    19    22    1
    11    16    17   ar
    12    17    18   ar
    13    10    11    1
    14    11    12    1
    15    12    13    1
    16    13     1    1
    17     1     2   ar
    18     2     3   ar
    19     3     4   ar
    20     4    23    1
    21    23    24    1
    22    24    25    1
    23    25    26   ar
    24    26    27   ar
    25    27    28   ar
    26    28    32    1
    27    32    33    2
    28    33    34    1
    29    33    35    1
    30    33    36    2
    31    28    29   ar
    32    29    30   ar
    33    30    31    1
    34     4     5   ar
    35     5     6   ar
    36    13     8    1
    37     6     1   ar
    38    18    14   ar
    39    30    25   ar
@<TRIPOS>MOLECULE
*****
 36 39 0 0 0
SMALL
GASTEIGER

@<TRIPOS>ATOM
      1 C         141.1245  139.7020  161.0979 C.ar    1  UNL1        0.2204
      2 N         142.1954  139.8099  160.0531 N.ar    1  UNL1       -0.2089
      3 C         141.8601  139.5816  158.6090 C.ar    1  UNL1        0.1402
      4 C         140.4538  139.2454  158.2097 C.ar    1  UNL1        0.1773
      5 C         139.3829  139.1375  159.2544 C.ar    1  UNL1        0.1402
      6 N         139.7183  139.3658  160.6986 N.ar    1  UNL1       -0.2089
      7 C         141.3027  137.3747  162.9826 C.3     1  UNL1        0.0233
      8 C         141.5490  138.7667  163.4843 C.3     1  UNL1        0.0955
      9 C         141.8843  138.9951  164.9284 C.3     1  UNL1        0.1149
     10 N         142.1307  140.3870  165.4301 N.pl3   1  UNL1       -0.2586
     11 C         142.0416  141.5507  164.4878 C.3     1  UNL1        0.1167
     12 C         141.7062  141.3223  163.0437 C.3     1  UNL1        0.1151
     13 N         141.4599  139.9303  162.5420 N.pl3   1  UNL1       -0.2764
     14 C         142.4661  140.6154  166.8742 C.ar    1  UNL1        0.3185
     15 N         142.6529  141.9485  167.5359 N.ar    1  UNL1       -0.1701
     16 C         142.9758  141.7077  168.9808 C.ar    1  UNL1        0.2766
     17 N         142.9885  140.2256  169.2122 N.ar    1  UNL1       -0.0499
     18 O         142.6735  139.5506  167.9102 O.2     1  UNL1       -0.3164
     19 C         143.2397  142.7635  170.0131 C.3     1  UNL1        0.4557
     20 F         143.5035  143.8193  171.0455 F       1  UNL1       -0.1631
     21 F         141.7929  143.1581  169.9793 F       1  UNL1       -0.1631
     22 F         144.6864  142.3688  170.0470 F       1  UNL1       -0.1631
     23 O         140.1185  139.0171  156.7656 O.3     1  UNL1       -0.4674
     24 C         141.2126  138.7513  155.7745 C.3     1  UNL1        0.2344
     25 C         141.8627  137.4007  155.7192 C.ar    1  UNL1        0.0487
     26 C         143.3556  137.2828  155.8046 C.ar    1  UNL1        0.0031
     27 C         144.0057  135.9321  155.7492 C.ar    1  UNL1        0.0197
     28 C         143.1628  134.6993  155.6085 C.ar    1  UNL1        0.0926
     29 C         141.6699  134.8172  155.5232 C.ar    1  UNL1        0.0492
     30 C         141.0198  136.1678  155.5785 C.ar    1  UNL1        0.1411
     31 F         139.5269  136.2857  155.4931 F       1  UNL1       -0.2043
     32 N         143.8129  133.3487  155.5532 N.2     1  UNL1       -0.1957
     33 S         144.2722  132.6850  156.8176 S.3     1  UNL1        0.0737
     34 C         143.7866  133.8614  157.6115 C.3     1  UNL1        0.1173
     35 C         144.7577  131.5085  156.0237 C.3     1  UNL1        0.1173
     36 O         144.7314  132.0213  158.0820 O.2     1  UNL1       -0.2458
@<TRIPOS>BOND
     1     8     7    1
     2     8     9    1
     3     9    10    1
     4    10    14    1
     5    14    15   ar
     6    15    16   ar
     7    16    19    1
     8    19    20    1
     9    19    21    1
    10    19    22    1
    11    16    17   ar
    12    17    18   ar
    13    10    11    1
    14    11    12    1
    15    12    13    1
    16    13     1    1
    17     1     2   ar
    18     2     3   ar
    19     3     4   ar
    20     4    23    1
    21    23    24    1
    22    24    25    1
    23    25    26   ar
    24    26    27   ar
    25    27    28   ar
    26    28    32    1
    27    32    33    2
    28    33    34    1
    29    33    35    1
    30    33    36    2
    31    28    29   ar
    32    29    30   ar
    33    30    31    1
    34     4     5   ar
    35     5     6   ar
    36    13     8    1
    37     6     1   ar
    38    18    14   ar
    39    30    25   ar
@<TRIPOS>MOLECULE
*****
 36 39 0 0 0
SMALL
GASTEIGER

@<TRIPOS>ATOM
      1 C         141.4741  141.7163  159.2556 C.ar    1  UNL1        0.2204
      2 N         142.4918  142.5496  159.9767 N.ar    1  UNL1       -0.2089
      3 C         142.1162  143.9033  160.5025 C.ar    1  UNL1        0.1402
      4 C         140.7229  144.4237  160.3072 C.ar    1  UNL1        0.1773
      5 C         139.7053  143.5904  159.5861 C.ar    1  UNL1        0.1402
      6 N         140.0809  142.2367  159.0603 N.ar    1  UNL1       -0.2089
      7 C         141.8287  139.4168  161.1495 C.3     1  UNL1        0.0233
      8 C         142.0270  139.2129  159.6767 C.3     1  UNL1        0.0955
      9 C         142.4026  137.8593  159.1508 C.3     1  UNL1        0.1149
     10 N         142.6010  137.6553  157.6781 N.pl3   1  UNL1       -0.2586
     11 C         142.4237  138.8050  156.7311 C.3     1  UNL1        0.1167
     12 C         142.0481  140.1587  157.2570 C.3     1  UNL1        0.1151
     13 N         141.8498  140.3626  158.7298 N.pl3   1  UNL1       -0.2764
     14 C         142.9766  136.3016  157.1522 C.ar    1  UNL1        0.3185
     15 N         143.3023  135.0936  157.9796 N.ar    1  UNL1       -0.1701
     16 C         143.6194  133.9637  157.0455 C.ar    1  UNL1        0.2766
     17 N         143.4898  134.4734  155.6406 N.ar    1  UNL1       -0.0499
     18 O         143.0925  135.9183  155.7067 O.2     1  UNL1       -0.3164
     19 C         143.9995  132.5689  157.4458 C.3     1  UNL1        0.4557
     20 F         144.3796  131.1742  157.8461 F       1  UNL1       -0.1631
     21 F         145.2275  133.0986  158.1252 F       1  UNL1       -0.1631
     22 F         142.7716  132.0393  156.7664 F       1  UNL1       -0.1631
     23 O         140.3474  145.7774  160.8330 O.3     1  UNL1       -0.4674
     24 C         139.6082  145.8985  162.1326 C.3     1  UNL1        0.2344
     25 C         139.3210  144.6735  162.9492 C.ar    1  UNL1        0.0487
     26 C         137.9845  144.0004  162.8471 C.ar    1  UNL1        0.0031
     27 C         137.6974  142.7753  163.6638 C.ar    1  UNL1        0.0197
     28 C         138.7468  142.2235  164.5824 C.ar    1  UNL1        0.0926
     29 C         140.0834  142.8966  164.6845 C.ar    1  UNL1        0.0492
     30 C         140.3705  144.1216  163.8679 C.ar    1  UNL1        0.1411
     31 F         141.7071  144.7947  163.9700 F       1  UNL1       -0.2043
     32 N         138.4597  140.9984  165.3990 N.2     1  UNL1       -0.1957
     33 S         138.5938  139.6376  164.7824 S.3     1  UNL1        0.0737
     34 C         139.0028  140.2665  163.4835 C.3     1  UNL1        0.1173
     35 C         138.1848  139.0088  166.0814 C.3     1  UNL1        0.1173
     36 O         138.7280  138.2768  164.1658 O.2     1  UNL1       -0.2458
@<TRIPOS>BOND
     1     8     7    1
     2     8     9    1
     3     9    10    1
     4    10    14    1
     5    14    15   ar
     6    15    16   ar
     7    16    19    1
     8    19    20    1
     9    19    21    1
    10    19    22    1
    11    16    17   ar
    12    17    18   ar
    13    10    11    1
    14    11    12    1
    15    12    13    1
    16    13     1    1
    17     1     2   ar
    18     2     3   ar
    19     3     4   ar
    20     4    23    1
    21    23    24    1
    22    24    25    1
    23    25    26   ar
    24    26    27   ar
    25    27    28   ar
    26    28    32    1
    27    32    33    2
    28    33    34    1
    29    33    35    1
    30    33    36    2
    31    28    29   ar
    32    29    30   ar
    33    30    31    1
    34     4     5   ar
    35     5     6   ar
    36    13     8    1
    37     6     1   ar
    38    18    14   ar
    39    30    25   ar
@<TRIPOS>MOLECULE
*****
 36 39 0 0 0
SMALL
GASTEIGER

@<TRIPOS>ATOM
      1 C         143.4512  141.1255  160.2517 C.ar    1  UNL1        0.2204
      2 N         144.6050  141.1784  161.2087 N.ar    1  UNL1       -0.2089
      3 C         144.8461  142.4132  162.0254 C.ar    1  UNL1        0.1402
      4 C         143.9333  143.5953  161.8851 C.ar    1  UNL1        0.1773
      5 C         142.7794  143.5424  160.9281 C.ar    1  UNL1        0.1402
      6 N         142.5384  142.3075  160.1114 N.ar    1  UNL1       -0.2089
      7 C         142.8035  138.5308  161.6112 C.3     1  UNL1        0.0233
      8 C         142.8863  138.5933  160.1148 C.3     1  UNL1        0.0955
      9 C         142.6453  137.3584  159.2981 C.3     1  UNL1        0.1149
     10 N         142.7281  137.4209  157.8017 N.pl3   1  UNL1       -0.2586
     11 C         143.0519  138.7182  157.1219 C.3     1  UNL1        0.1167
     12 C         143.2929  139.9530  157.9386 C.3     1  UNL1        0.1151
     13 N         143.2101  139.8906  159.4350 N.pl3   1  UNL1       -0.2764
     14 C         142.4870  136.1859  156.9850 C.ar    1  UNL1        0.3185
     15 N         143.2234  134.8856  157.1145 N.ar    1  UNL1       -0.1701
     16 C         142.6588  133.9306  156.1050 C.ar    1  UNL1        0.2766
     17 N         141.5734  134.6408  155.3515 N.ar    1  UNL1       -0.0499
     18 O         141.4673  136.0346  155.8954 O.2     1  UNL1       -0.3164
     19 C         143.1017  132.5141  155.8872 C.3     1  UNL1        0.4557
     20 F         143.5446  131.0976  155.6694 F       1  UNL1       -0.1631
     21 F         143.3526  132.8152  154.4393 F       1  UNL1       -0.1631
     22 F         142.8507  132.2130  157.3351 F       1  UNL1       -0.1631
     23 O         144.1743  144.8302  162.7017 O.3     1  UNL1       -0.4674
     24 C         143.2813  145.1464  163.8647 C.3     1  UNL1        0.2344
     25 C         142.3250  144.1116  164.3791 C.ar    1  UNL1        0.0487
     26 C         140.8543  144.2557  164.1215 C.ar    1  UNL1        0.0031
     27 C         139.8979  143.2209  164.6359 C.ar    1  UNL1        0.0197
     28 C         140.4122  142.0421  165.4078 C.ar    1  UNL1        0.0926
     29 C         141.8829  141.8980  165.6654 C.ar    1  UNL1        0.0492
     30 C         142.8393  142.9327  165.1510 C.ar    1  UNL1        0.1411
     31 F         144.3099  142.7887  165.4086 F       1  UNL1       -0.2043
     32 N         139.4558  141.0073  165.9222 N.2     1  UNL1       -0.1957
     33 S         139.0636  139.8501  165.0521 S.3     1  UNL1        0.0737
     34 C         139.9415  140.3768  163.9558 C.3     1  UNL1        0.1173
     35 C         138.1857  139.3234  166.1484 C.3     1  UNL1        0.1173
     36 O         138.6714  138.6929  164.1820 O.2     1  UNL1       -0.2458
@<TRIPOS>BOND
     1     8     7    1
     2     8     9    1
     3     9    10    1
     4    10    14    1
     5    14    15   ar
     6    15    16   ar
     7    16    19    1
     8    19    20    1
     9    19    21    1
    10    19    22    1
    11    16    17   ar
    12    17    18   ar
    13    10    11    1
    14    11    12    1
    15    12    13    1
    16    13     1    1
    17     1     2   ar
    18     2     3   ar
    19     3     4   ar
    20     4    23    1
    21    23    24    1
    22    24    25    1
    23    25    26   ar
    24    26    27   ar
    25    27    28   ar
    26    28    32    1
    27    32    33    2
    28    33    34    1
    29    33    35    1
    30    33    36    2
    31    28    29   ar
    32    29    30   ar
    33    30    31    1
    34     4     5   ar
    35     5     6   ar
    36    13     8    1
    37     6     1   ar
    38    18    14   ar
    39    30    25   ar
