@<TRIPOS>MOLECULE
*****
 36 40 0 0 0
SMALL
GASTEIGER

@<TRIPOS>ATOM
      1 N         142.8294  144.2865  162.4757 N.3     1  UNL1       -0.2689
      2 C         142.1884  144.6968  163.7682 C.3     1  UNL1        0.0737
      3 C         140.7246  145.0217  163.8096 C.3     1  UNL1        0.0356
      4 C         139.9018  144.9362  162.5583 C.3     1  UNL1        0.0846
      5 C         140.5429  144.5259  161.2657 C.3     1  UNL1        0.1455
      6 C         142.0066  144.2011  161.2244 C.3     1  UNL1        0.1034
      7 N         138.4379  145.2611  162.5996 N.3     1  UNL1       -0.2915
      8 H         138.1495  145.4432  161.6383 H       1  UNL1        0.1236
      9 C         137.4650  144.2680  163.1628 C.3     1  UNL1        0.1153
     10 C         137.7194  142.7979  163.0079 C.ar    1  UNL1        0.0782
     11 C         137.9900  141.9522  164.2168 C.ar    1  UNL1        0.0562
     12 C         138.2445  140.4821  164.0620 C.ar    1  UNL1        0.1752
     13 C         138.2284  139.8577  162.6981 C.ar    1  UNL1        0.1914
     14 C         137.9579  140.7035  161.4892 C.ar    1  UNL1        0.1384
     15 N         137.7034  142.1736  161.6441 N.ar    1  UNL1       -0.2434
     16 O         138.4829  138.3876  162.5433 O.3     1  UNL1       -0.4668
     17 C         138.7535  137.5418  163.7522 C.3     1  UNL1        0.2527
     18 C         138.7695  138.1661  165.1160 C.3     1  UNL1        0.2526
     19 O         138.5150  139.6363  165.2709 O.3     1  UNL1       -0.4683
     20 O         139.7200  144.4405  160.0144 O.3     1  UNL1       -0.3508
     21 C         139.9715  143.3415  159.0250 C.3     1  UNL1        0.1741
     22 C         144.2933  143.9617  162.4344 C.3     1  UNL1        0.0970
     23 C         144.8083  142.7321  163.1220 C.3     1  UNL1        0.1264
     24 C         143.1199  141.8395  167.1966 C.ar    1  UNL1        0.1403
     25 C         142.2187  140.6565  167.3923 C.ar    1  UNL1        0.0385
     26 C         141.8803  139.7710  166.2298 C.ar    1  UNL1        0.0237
     27 C         142.4431  140.0686  164.8716 C.ar    1  UNL1        0.0975
     28 N         142.1047  139.1831  163.7091 N.ar    1  UNL1       -0.2374
     29 C         142.6675  139.4806  162.3509 C.ar    1  UNL1        0.1594
     30 C         143.5687  140.6636  162.1552 C.ar    1  UNL1        0.2803
     31 O         144.1315  140.9612  160.7970 O.2     1  UNL1       -0.2653
     32 N         143.9071  141.5491  163.3177 N.ar    1  UNL1       -0.2913
     33 C         143.3443  141.2515  164.6759 C.ar    1  UNL1        0.0832
     34 C         143.6827  142.1370  165.8384 C.ar    1  UNL1        0.0557
     35 C         143.6248  142.1347  169.7280 C.3     1  UNL1        0.2525
     36 O         143.4583  142.7250  168.3591 O.3     1  UNL1       -0.4714
@<TRIPOS>BOND
     1    35    36    1
     2    36    24    1
     3    24    25   ar
     4    25    26   ar
     5    26    27   ar
     6    27    28   ar
     7    28    29   ar
     8    29    30   ar
     9    30    31    2
    10    30    32   ar
    11    32    23    1
    12    23    22    1
    13    22     1    1
    14     1     2    1
    15     2     3    1
    16     3     4    1
    17     4     7    1
    18     7     9    1
    19     9    10    1
    20    10    11   ar
    21    11    12   ar
    22    12    13   ar
    23    13    14   ar
    24    14    15   ar
    25    13    16    1
    26    16    17    1
    27    17    18    1
    28    18    19    1
    29     4     5    1
    30     5    20    1
    31    20    21    1
    32     5     6    1
    33    32    33   ar
    34    33    34   ar
    35    34    24   ar
    36    33    27   ar
    37     6     1    1
    38    15    10   ar
    39    19    12    1
    40     7     8    1
@<TRIPOS>MOLECULE
*****
 36 40 0 0 0
SMALL
GASTEIGER

@<TRIPOS>ATOM
      1 N         138.0766  140.0370  162.4260 N.3     1  UNL1       -0.2689
      2 C         137.7530  140.7571  163.7015 C.3     1  UNL1        0.0737
      3 C         137.6373  142.2526  163.7098 C.3     1  UNL1        0.0356
      4 C         137.8452  143.0280  162.4427 C.3     1  UNL1        0.0846
      5 C         138.1688  142.3079  161.1673 C.3     1  UNL1        0.1455
      6 C         138.2845  140.8124  161.1589 C.3     1  UNL1        0.1034
      7 N         137.7295  144.5235  162.4510 N.3     1  UNL1       -0.2915
      8 H         137.0293  144.7608  163.1538 H       1  UNL1        0.1236
      9 C         138.9356  145.3675  162.7393 C.3     1  UNL1        0.1153
     10 C         140.3060  144.7599  162.6868 C.ar    1  UNL1        0.0782
     11 C         140.9524  144.2577  163.9438 C.ar    1  UNL1        0.0562
     12 C         142.3228  143.6502  163.8914 C.ar    1  UNL1        0.1752
     13 C         143.0469  143.5448  162.5819 C.ar    1  UNL1        0.1914
     14 C         142.4005  144.0469  161.3249 C.ar    1  UNL1        0.1384
     15 N         141.0300  144.6545  161.3774 N.ar    1  UNL1       -0.2434
     16 O         144.4173  142.9372  162.5294 O.3     1  UNL1       -0.4668
     17 C         145.0637  142.4350  163.7864 C.3     1  UNL1        0.2527
     18 C         144.3397  142.5404  165.0958 C.3     1  UNL1        0.2526
     19 O         142.9692  143.1480  165.1483 O.3     1  UNL1       -0.4683
     20 O         138.3767  143.0833  159.9002 O.3     1  UNL1       -0.3508
     21 C         138.3979  142.3713  158.5801 C.3     1  UNL1        0.1741
     22 C         138.1923  138.5415  162.4177 C.3     1  UNL1        0.0970
     23 C         138.9543  137.8422  163.5042 C.3     1  UNL1        0.1264
     24 C         139.9049  139.6179  167.5282 C.ar    1  UNL1        0.1403
     25 C         141.3084  140.0381  167.8499 C.ar    1  UNL1        0.0385
     26 C         142.3950  139.8665  166.8302 C.ar    1  UNL1        0.0237
     27 C         142.0782  139.2746  165.4889 C.ar    1  UNL1        0.0975
     28 N         143.1648  139.1030  164.4692 N.ar    1  UNL1       -0.2374
     29 C         142.8480  138.5111  163.1279 C.ar    1  UNL1        0.1594
     30 C         141.4444  138.0908  162.8062 C.ar    1  UNL1        0.2803
     31 O         141.1276  137.4989  161.4648 O.2     1  UNL1       -0.2653
     32 N         140.3578  138.2624  163.8258 N.ar    1  UNL1       -0.2913
     33 C         140.6747  138.8543  165.1672 C.ar    1  UNL1        0.0832
     34 C         139.5880  139.0260  166.1869 C.ar    1  UNL1        0.0557
     35 C         139.1198  140.4470  169.8619 C.3     1  UNL1        0.2525
     36 O         138.8182  139.7895  168.5479 O.3     1  UNL1       -0.4714
@<TRIPOS>BOND
     1    35    36    1
     2    36    24    1
     3    24    25   ar
     4    25    26   ar
     5    26    27   ar
     6    27    28   ar
     7    28    29   ar
     8    29    30   ar
     9    30    31    2
    10    30    32   ar
    11    32    23    1
    12    23    22    1
    13    22     1    1
    14     1     2    1
    15     2     3    1
    16     3     4    1
    17     4     7    1
    18     7     9    1
    19     9    10    1
    20    10    11   ar
    21    11    12   ar
    22    12    13   ar
    23    13    14   ar
    24    14    15   ar
    25    13    16    1
    26    16    17    1
    27    17    18    1
    28    18    19    1
    29     4     5    1
    30     5    20    1
    31    20    21    1
    32     5     6    1
    33    32    33   ar
    34    33    34   ar
    35    34    24   ar
    36    33    27   ar
    37     6     1    1
    38    15    10   ar
    39    19    12    1
    40     7     8    1
@<TRIPOS>MOLECULE
*****
 36 40 0 0 0
SMALL
GASTEIGER

@<TRIPOS>ATOM
      1 N         138.0365  139.9828  162.3228 N.3     1  UNL1       -0.2689
      2 C         137.6947  140.6924  163.5994 C.3     1  UNL1        0.0737
      3 C         137.6195  142.1902  163.6280 C.3     1  UNL1        0.0356
      4 C         137.8861  142.9784  162.3800 C.3     1  UNL1        0.0846
      5 C         138.2279  142.2689  161.1034 C.3     1  UNL1        0.1455
      6 C         138.3031  140.7711  161.0748 C.3     1  UNL1        0.1034
      7 N         137.8108  144.4763  162.4085 N.3     1  UNL1       -0.2915
      8 H         137.1546  144.7241  163.1490 H       1  UNL1        0.1236
      9 C         139.0523  145.2853  162.6415 C.3     1  UNL1        0.1153
     10 C         140.3473  144.5975  162.9577 C.ar    1  UNL1        0.0782
     11 C         141.3103  144.2686  161.8557 C.ar    1  UNL1        0.0562
     12 C         142.6053  143.5808  162.1718 C.ar    1  UNL1        0.1752
     13 C         142.9373  143.2220  163.5900 C.ar    1  UNL1        0.1914
     14 C         141.9743  143.5510  164.6920 C.ar    1  UNL1        0.1384
     15 N         140.6792  144.2388  164.3758 N.ar    1  UNL1       -0.2434
     16 O         144.2323  142.5343  163.9061 O.3     1  UNL1       -0.4668
     17 C         145.1953  142.2053  162.8041 C.3     1  UNL1        0.2527
     18 C         144.8634  142.5640  161.3860 C.3     1  UNL1        0.2526
     19 O         143.5683  143.2518  161.0698 O.3     1  UNL1       -0.4683
     20 O         138.4944  143.0572  159.8553 O.3     1  UNL1       -0.3508
     21 C         139.4891  142.5567  158.8502 C.3     1  UNL1        0.1741
     22 C         138.1118  138.4849  162.2942 C.3     1  UNL1        0.0970
     23 C         139.0127  137.7609  163.2503 C.3     1  UNL1        0.1264
     24 C         139.9858  139.5774  167.2507 C.ar    1  UNL1        0.1403
     25 C         141.3658  140.0989  167.5218 C.ar    1  UNL1        0.0385
     26 C         142.4215  140.0149  166.4595 C.ar    1  UNL1        0.0237
     27 C         142.0971  139.4094  165.1261 C.ar    1  UNL1        0.0975
     28 N         143.1528  139.3254  164.0638 N.ar    1  UNL1       -0.2374
     29 C         142.8285  138.7199  162.7303 C.ar    1  UNL1        0.1594
     30 C         141.4484  138.1984  162.4591 C.ar    1  UNL1        0.2803
     31 O         141.1241  137.5929  161.1257 O.2     1  UNL1       -0.2653
     32 N         140.3927  138.2824  163.5214 N.ar    1  UNL1       -0.2913
     33 C         140.7171  138.8879  164.8549 C.ar    1  UNL1        0.0832
     34 C         139.6615  138.9719  165.9172 C.ar    1  UNL1        0.0557
     35 C         139.2129  140.3855  169.5958 C.3     1  UNL1        0.2525
     36 O         138.9301  139.6614  168.3130 O.3     1  UNL1       -0.4714
@<TRIPOS>BOND
     1    35    36    1
     2    36    24    1
     3    24    25   ar
     4    25    26   ar
     5    26    27   ar
     6    27    28   ar
     7    28    29   ar
     8    29    30   ar
     9    30    31    2
    10    30    32   ar
    11    32    23    1
    12    23    22    1
    13    22     1    1
    14     1     2    1
    15     2     3    1
    16     3     4    1
    17     4     7    1
    18     7     9    1
    19     9    10    1
    20    10    11   ar
    21    11    12   ar
    22    12    13   ar
    23    13    14   ar
    24    14    15   ar
    25    13    16    1
    26    16    17    1
    27    17    18    1
    28    18    19    1
    29     4     5    1
    30     5    20    1
    31    20    21    1
    32     5     6    1
    33    32    33   ar
    34    33    34   ar
    35    34    24   ar
    36    33    27   ar
    37     6     1    1
    38    15    10   ar
    39    19    12    1
    40     7     8    1
@<TRIPOS>MOLECULE
*****
 36 40 0 0 0
SMALL
GASTEIGER

@<TRIPOS>ATOM
      1 N         137.8743  142.9616  162.9115 N.3     1  UNL1       -0.2689
      2 C         137.6883  141.8401  163.8901 C.3     1  UNL1        0.0737
      3 C         137.6809  140.4191  163.4098 C.3     1  UNL1        0.0356
      4 C         137.8595  140.1196  161.9510 C.3     1  UNL1        0.0846
      5 C         138.0454  141.2411  160.9723 C.3     1  UNL1        0.1455
      6 C         138.0528  142.6621  161.4526 C.3     1  UNL1        0.1034
      7 N         137.8521  138.6985  161.4706 N.3     1  UNL1       -0.2915
      8 H         137.2825  138.6766  160.6248 H       1  UNL1        0.1236
      9 C         139.1442  138.0118  161.1405 C.3     1  UNL1        0.1153
     10 C         140.3443  138.2096  162.0182 C.ar    1  UNL1        0.0782
     11 C         141.4067  139.1931  161.6256 C.ar    1  UNL1        0.0562
     12 C         142.6068  139.3910  162.5033 C.ar    1  UNL1        0.1752
     13 C         142.7447  138.6053  163.7737 C.ar    1  UNL1        0.1914
     14 C         141.6823  137.6218  164.1663 C.ar    1  UNL1        0.1384
     15 N         140.4821  137.4239  163.2885 N.ar    1  UNL1       -0.2434
     16 O         143.9449  138.8031  164.6514 O.3     1  UNL1       -0.4668
     17 C         145.0072  139.7866  164.2588 C.3     1  UNL1        0.2527
     18 C         144.8694  140.5723  162.9885 C.3     1  UNL1        0.2526
     19 O         143.6692  140.3745  162.1107 O.3     1  UNL1       -0.4683
     20 O         138.2240  140.9415  159.5134 O.3     1  UNL1       -0.3508
     21 C         139.5876  141.0194  158.8932 C.3     1  UNL1        0.1741
     22 C         137.8816  144.3826  163.3918 C.3     1  UNL1        0.0970
     23 C         138.9082  144.8319  164.3890 C.3     1  UNL1        0.1264
     24 C         140.9164  142.0073  167.2593 C.ar    1  UNL1        0.1403
     25 C         142.3586  141.6426  167.0671 C.ar    1  UNL1        0.0385
     26 C         143.1314  142.2194  165.9182 C.ar    1  UNL1        0.0237
     27 C         142.4621  143.1609  164.9614 C.ar    1  UNL1        0.0975
     28 N         143.2349  143.7377  163.8125 N.ar    1  UNL1       -0.2374
     29 C         142.5655  144.6792  162.8557 C.ar    1  UNL1        0.1594
     30 C         141.1232  145.0440  163.0479 C.ar    1  UNL1        0.2803
     31 O         140.4538  145.9855  162.0911 O.2     1  UNL1       -0.2653
     32 N         140.3504  144.4672  164.1968 N.ar    1  UNL1       -0.2913
     33 C         141.0199  143.5256  165.1536 C.ar    1  UNL1        0.0832
     34 C         140.2470  142.9488  166.3025 C.ar    1  UNL1        0.0557
     35 C         139.5256  140.0691  168.2882 C.3     1  UNL1        0.2525
     36 O         140.1436  141.4305  168.4082 O.3     1  UNL1       -0.4714
@<TRIPOS>BOND
     1    35    36    1
     2    36    24    1
     3    24    25   ar
     4    25    26   ar
     5    26    27   ar
     6    27    28   ar
     7    28    29   ar
     8    29    30   ar
     9    30    31    2
    10    30    32   ar
    11    32    23    1
    12    23    22    1
    13    22     1    1
    14     1     2    1
    15     2     3    1
    16     3     4    1
    17     4     7    1
    18     7     9    1
    19     9    10    1
    20    10    11   ar
    21    11    12   ar
    22    12    13   ar
    23    13    14   ar
    24    14    15   ar
    25    13    16    1
    26    16    17    1
    27    17    18    1
    28    18    19    1
    29     4     5    1
    30     5    20    1
    31    20    21    1
    32     5     6    1
    33    32    33   ar
    34    33    34   ar
    35    34    24   ar
    36    33    27   ar
    37     6     1    1
    38    15    10   ar
    39    19    12    1
    40     7     8    1
@<TRIPOS>MOLECULE
*****
 36 40 0 0 0
SMALL
GASTEIGER

@<TRIPOS>ATOM
      1 N         142.7544  144.1401  163.0233 N.3     1  UNL1       -0.2689
      2 C         142.5819  143.5429  161.6581 C.3     1  UNL1        0.0737
      3 C         141.2115  143.4215  161.0604 C.3     1  UNL1        0.0356
      4 C         140.0137  143.8972  161.8279 C.3     1  UNL1        0.0846
      5 C         140.1863  144.4944  163.1930 C.3     1  UNL1        0.1455
      6 C         141.5567  144.6158  163.7907 C.3     1  UNL1        0.1034
      7 N         138.6433  143.7758  161.2302 N.3     1  UNL1       -0.2915
      8 H         138.6134  144.4089  160.4309 H       1  UNL1        0.1236
      9 C         138.1515  142.4439  160.7462 C.3     1  UNL1        0.1153
     10 C         138.3595  141.2177  161.5846 C.ar    1  UNL1        0.0782
     11 C         138.0380  141.2473  163.0495 C.ar    1  UNL1        0.0562
     12 C         138.2460  140.0211  163.8879 C.ar    1  UNL1        0.1752
     13 C         138.7756  138.7652  163.2616 C.ar    1  UNL1        0.1914
     14 C         139.0972  138.7356  161.7968 C.ar    1  UNL1        0.1384
     15 N         138.8891  139.9619  160.9583 N.ar    1  UNL1       -0.2434
     16 O         138.9837  137.5390  164.1001 O.3     1  UNL1       -0.4668
     17 C         138.6621  137.5686  165.5649 C.3     1  UNL1        0.2527
     18 C         138.1325  138.8245  166.1913 C.3     1  UNL1        0.2526
     19 O         137.9244  140.0508  165.3528 O.3     1  UNL1       -0.4683
     20 O         138.9885  144.9701  163.9604 O.3     1  UNL1       -0.3508
     21 C         138.8753  144.6822  165.4282 C.3     1  UNL1        0.1741
     22 C         144.1249  144.2615  163.6210 C.3     1  UNL1        0.0970
     23 C         144.4720  143.4954  164.8629 C.3     1  UNL1        0.1264
     24 C         141.3483  141.7551  167.5949 C.ar    1  UNL1        0.1403
     25 C         141.1377  140.2708  167.6440 C.ar    1  UNL1        0.0385
     26 C         141.9683  139.3666  166.7823 C.ar    1  UNL1        0.0237
     27 C         143.0096  139.9466  165.8717 C.ar    1  UNL1        0.0975
     28 N         143.8402  139.0424  165.0100 N.ar    1  UNL1       -0.2374
     29 C         144.8814  139.6225  164.0994 C.ar    1  UNL1        0.1594
     30 C         145.0921  141.1068  164.0503 C.ar    1  UNL1        0.2803
     31 O         146.1333  141.6869  163.1397 O.2     1  UNL1       -0.2653
     32 N         144.2614  142.0111  164.9120 N.ar    1  UNL1       -0.2913
     33 C         143.2202  141.4309  165.8227 C.ar    1  UNL1        0.0832
     34 C         142.3895  142.3352  166.6843 C.ar    1  UNL1        0.0557
     35 C         140.0559  142.1938  169.8056 C.3     1  UNL1        0.2525
     36 O         140.5177  142.6593  168.4566 O.3     1  UNL1       -0.4714
@<TRIPOS>BOND
     1    35    36    1
     2    36    24    1
     3    24    25   ar
     4    25    26   ar
     5    26    27   ar
     6    27    28   ar
     7    28    29   ar
     8    29    30   ar
     9    30    31    2
    10    30    32   ar
    11    32    23    1
    12    23    22    1
    13    22     1    1
    14     1     2    1
    15     2     3    1
    16     3     4    1
    17     4     7    1
    18     7     9    1
    19     9    10    1
    20    10    11   ar
    21    11    12   ar
    22    12    13   ar
    23    13    14   ar
    24    14    15   ar
    25    13    16    1
    26    16    17    1
    27    17    18    1
    28    18    19    1
    29     4     5    1
    30     5    20    1
    31    20    21    1
    32     5     6    1
    33    32    33   ar
    34    33    34   ar
    35    34    24   ar
    36    33    27   ar
    37     6     1    1
    38    15    10   ar
    39    19    12    1
    40     7     8    1
@<TRIPOS>MOLECULE
*****
 36 40 0 0 0
SMALL
GASTEIGER

@<TRIPOS>ATOM
      1 N         137.8066  142.5504  163.5481 N.3     1  UNL1       -0.2689
      2 C         137.8705  142.3400  162.0643 C.3     1  UNL1        0.0737
      3 C         138.1232  140.9687  161.5115 C.3     1  UNL1        0.0356
      4 C         138.3121  139.8078  162.4425 C.3     1  UNL1        0.0846
      5 C         138.2481  140.0183  163.9262 C.3     1  UNL1        0.1455
      6 C         137.9954  141.3895  164.4791 C.3     1  UNL1        0.1034
      7 N         138.5648  138.4365  161.8896 N.3     1  UNL1       -0.2915
      8 H         137.8979  138.2975  161.1305 H       1  UNL1        0.1236
      9 C         139.9182  138.0843  161.3469 C.3     1  UNL1        0.1153
     10 C         141.1544  138.5981  162.0234 C.ar    1  UNL1        0.0782
     11 C         141.9206  139.7381  161.4205 C.ar    1  UNL1        0.0562
     12 C         143.1568  140.2519  162.0970 C.ar    1  UNL1        0.1752
     13 C         143.6270  139.6257  163.3764 C.ar    1  UNL1        0.1914
     14 C         142.8608  138.4857  163.9793 C.ar    1  UNL1        0.1384
     15 N         141.6245  137.9719  163.3028 N.ar    1  UNL1       -0.2434
     16 O         144.8632  140.1394  164.0529 O.3     1  UNL1       -0.4668
     17 C         145.6294  141.2794  163.4500 C.3     1  UNL1        0.2527
     18 C         145.1593  141.9056  162.1707 C.3     1  UNL1        0.2526
     19 O         143.9229  141.3919  161.4941 O.3     1  UNL1       -0.4683
     20 O         138.4370  138.8573  164.8572 O.3     1  UNL1       -0.3508
     21 C         138.0913  138.9972  166.3101 C.3     1  UNL1        0.1741
     22 C         137.5538  143.9218  164.1009 C.3     1  UNL1        0.0970
     23 C         138.6459  144.6513  164.8255 C.3     1  UNL1        0.1264
     24 C         141.1770  142.1112  167.5442 C.ar    1  UNL1        0.1403
     25 C         142.6126  141.8453  167.2006 C.ar    1  UNL1        0.0385
     26 C         143.2047  142.4262  165.9508 C.ar    1  UNL1        0.0237
     27 C         142.3610  143.2729  165.0445 C.ar    1  UNL1        0.0975
     28 N         142.9530  143.8537  163.7947 N.ar    1  UNL1       -0.2374
     29 C         142.1094  144.7004  162.8884 C.ar    1  UNL1        0.1594
     30 C         140.6736  144.9663  163.2320 C.ar    1  UNL1        0.2803
     31 O         139.8299  145.8130  162.3258 O.2     1  UNL1       -0.2653
     32 N         140.0816  144.3855  164.4819 N.ar    1  UNL1       -0.2913
     33 C         140.9253  143.5387  165.3881 C.ar    1  UNL1        0.0832
     34 C         140.3333  142.9579  166.6380 C.ar    1  UNL1        0.0557
     35 C         140.5373  140.0427  168.9803 C.3     1  UNL1        0.2525
     36 O         140.5849  141.5303  168.7941 O.3     1  UNL1       -0.4714
@<TRIPOS>BOND
     1    35    36    1
     2    36    24    1
     3    24    25   ar
     4    25    26   ar
     5    26    27   ar
     6    27    28   ar
     7    28    29   ar
     8    29    30   ar
     9    30    31    2
    10    30    32   ar
    11    32    23    1
    12    23    22    1
    13    22     1    1
    14     1     2    1
    15     2     3    1
    16     3     4    1
    17     4     7    1
    18     7     9    1
    19     9    10    1
    20    10    11   ar
    21    11    12   ar
    22    12    13   ar
    23    13    14   ar
    24    14    15   ar
    25    13    16    1
    26    16    17    1
    27    17    18    1
    28    18    19    1
    29     4     5    1
    30     5    20    1
    31    20    21    1
    32     5     6    1
    33    32    33   ar
    34    33    34   ar
    35    34    24   ar
    36    33    27   ar
    37     6     1    1
    38    15    10   ar
    39    19    12    1
    40     7     8    1
@<TRIPOS>MOLECULE
*****
 36 40 0 0 0
SMALL
GASTEIGER

@<TRIPOS>ATOM
      1 N         142.9812  144.2029  162.4490 N.3     1  UNL1       -0.2689
      2 C         142.3210  144.8984  163.6025 C.3     1  UNL1        0.0737
      3 C         140.8550  145.2111  163.5501 C.3     1  UNL1        0.0356
      4 C         140.0491  144.8282  162.3444 C.3     1  UNL1        0.0846
      5 C         140.7093  144.1327  161.1909 C.3     1  UNL1        0.1455
      6 C         142.1753  143.8200  161.2433 C.3     1  UNL1        0.1034
      7 N         138.5829  145.1409  162.2920 N.3     1  UNL1       -0.2915
      8 H         138.3050  145.0861  161.3121 H       1  UNL1        0.1236
      9 C         137.6091  144.3025  163.0659 C.3     1  UNL1        0.1153
     10 C         137.8186  142.8215  163.1787 C.ar    1  UNL1        0.0782
     11 C         138.1324  142.2077  164.5109 C.ar    1  UNL1        0.0562
     12 C         138.3418  140.7267  164.6237 C.ar    1  UNL1        0.1752
     13 C         138.2375  139.8594  163.4042 C.ar    1  UNL1        0.1914
     14 C         137.9238  140.4732  162.0720 C.ar    1  UNL1        0.1384
     15 N         137.7143  141.9543  161.9592 N.ar    1  UNL1       -0.2434
     16 O         138.4470  138.3785  163.5170 O.3     1  UNL1       -0.4668
     17 C         138.7608  137.7647  164.8492 C.3     1  UNL1        0.2527
     18 C         138.8651  138.6319  166.0687 C.3     1  UNL1        0.2526
     19 O         138.6556  140.1130  165.9559 O.3     1  UNL1       -0.4683
     20 O         139.9033  143.7499  159.9851 O.3     1  UNL1       -0.3508
     21 C         140.1853  142.4601  159.2731 C.3     1  UNL1        0.1741
     22 C         144.4474  143.8902  162.5014 C.3     1  UNL1        0.0970
     23 C         144.9157  142.5832  163.0692 C.3     1  UNL1        0.1264
     24 C         143.4193  139.2796  160.4051 C.ar    1  UNL1        0.1403
     25 C         142.4220  138.2885  160.9276 C.ar    1  UNL1        0.0385
     26 C         141.9234  138.3985  162.3380 C.ar    1  UNL1        0.0237
     27 C         142.4222  139.4997  163.2260 C.ar    1  UNL1        0.0975
     28 N         141.9236  139.6097  164.6364 N.ar    1  UNL1       -0.2374
     29 C         142.4224  140.7109  165.5244 C.ar    1  UNL1        0.1594
     30 C         143.4198  141.7021  165.0020 C.ar    1  UNL1        0.2803
     31 O         143.9186  142.8033  165.8900 O.2     1  UNL1       -0.2653
     32 N         143.9184  141.5920  163.5916 N.ar    1  UNL1       -0.2913
     33 C         143.4195  140.4908  162.7036 C.ar    1  UNL1        0.0832
     34 C         143.9181  140.3807  161.2931 C.ar    1  UNL1        0.0557
     35 C         143.1639  139.8303  157.8790 C.3     1  UNL1        0.2525
     36 O         143.9179  139.1695  158.9947 O.3     1  UNL1       -0.4714
@<TRIPOS>BOND
     1    35    36    1
     2    36    24    1
     3    24    25   ar
     4    25    26   ar
     5    26    27   ar
     6    27    28   ar
     7    28    29   ar
     8    29    30   ar
     9    30    31    2
    10    30    32   ar
    11    32    23    1
    12    23    22    1
    13    22     1    1
    14     1     2    1
    15     2     3    1
    16     3     4    1
    17     4     7    1
    18     7     9    1
    19     9    10    1
    20    10    11   ar
    21    11    12   ar
    22    12    13   ar
    23    13    14   ar
    24    14    15   ar
    25    13    16    1
    26    16    17    1
    27    17    18    1
    28    18    19    1
    29     4     5    1
    30     5    20    1
    31    20    21    1
    32     5     6    1
    33    32    33   ar
    34    33    34   ar
    35    34    24   ar
    36    33    27   ar
    37     6     1    1
    38    15    10   ar
    39    19    12    1
    40     7     8    1
@<TRIPOS>MOLECULE
*****
 36 40 0 0 0
SMALL
GASTEIGER

@<TRIPOS>ATOM
      1 N         141.8674  138.1002  164.1944 N.3     1  UNL1       -0.2689
      2 C         142.5826  138.8054  165.3084 C.3     1  UNL1        0.0737
      3 C         143.8283  139.5902  165.0217 C.3     1  UNL1        0.0356
      4 C         144.3587  139.6699  163.6209 C.3     1  UNL1        0.0846
      5 C         143.6435  138.9646  162.5069 C.3     1  UNL1        0.1455
      6 C         142.3978  138.1798  162.7936 C.3     1  UNL1        0.1034
      7 N         145.6045  140.4547  163.3341 N.3     1  UNL1       -0.2915
      8 H         145.9568  140.1293  162.4339 H       1  UNL1        0.1236
      9 C         145.5475  141.9519  163.2612 C.3     1  UNL1        0.1153
     10 C         144.4788  142.6232  162.4505 C.ar    1  UNL1        0.0782
     11 C         143.4950  143.5382  163.1175 C.ar    1  UNL1        0.0562
     12 C         142.4263  144.2095  162.3068 C.ar    1  UNL1        0.1752
     13 C         142.3415  143.9658  160.8291 C.ar    1  UNL1        0.1914
     14 C         143.3253  143.0508  160.1621 C.ar    1  UNL1        0.1384
     15 N         144.3940  142.3795  160.9729 N.ar    1  UNL1       -0.2434
     16 O         141.2728  144.6371  160.0184 O.3     1  UNL1       -0.4668
     17 C         140.2889  145.5521  160.6853 C.3     1  UNL1        0.2527
     18 C         140.3737  145.7958  162.1629 C.3     1  UNL1        0.2526
     19 O         141.4424  145.1245  162.9737 O.3     1  UNL1       -0.4683
     20 O         144.1739  139.0443  161.1060 O.3     1  UNL1       -0.3508
     21 C         143.2533  138.8269  159.9419 C.3     1  UNL1        0.1741
     22 C         140.6216  137.3153  164.4812 C.3     1  UNL1        0.0970
     23 C         139.3544  138.0281  164.8499 C.3     1  UNL1        0.1264
     24 C         140.1750  142.0900  166.6041 C.ar    1  UNL1        0.1403
     25 C         139.7653  143.3255  165.8587 C.ar    1  UNL1        0.0385
     26 C         139.0820  143.2071  164.5286 C.ar    1  UNL1        0.0237
     27 C         138.8085  141.8531  163.9439 C.ar    1  UNL1        0.0975
     28 N         138.1253  141.7347  162.6138 N.ar    1  UNL1       -0.2374
     29 C         137.8517  140.3808  162.0291 C.ar    1  UNL1        0.1594
     30 C         138.2614  139.1452  162.7745 C.ar    1  UNL1        0.2803
     31 O         137.9879  137.7912  162.1897 O.2     1  UNL1       -0.2653
     32 N         138.9447  139.2636  164.1046 N.ar    1  UNL1       -0.2913
     33 C         139.2182  140.6176  164.6893 C.ar    1  UNL1        0.0832
     34 C         139.9014  140.7361  166.0194 C.ar    1  UNL1        0.0557
     35 C         142.1499  141.4870  168.1807 C.3     1  UNL1        0.2525
     36 O         140.8582  142.2085  167.9342 O.3     1  UNL1       -0.4714
@<TRIPOS>BOND
     1    35    36    1
     2    36    24    1
     3    24    25   ar
     4    25    26   ar
     5    26    27   ar
     6    27    28   ar
     7    28    29   ar
     8    29    30   ar
     9    30    31    2
    10    30    32   ar
    11    32    23    1
    12    23    22    1
    13    22     1    1
    14     1     2    1
    15     2     3    1
    16     3     4    1
    17     4     7    1
    18     7     9    1
    19     9    10    1
    20    10    11   ar
    21    11    12   ar
    22    12    13   ar
    23    13    14   ar
    24    14    15   ar
    25    13    16    1
    26    16    17    1
    27    17    18    1
    28    18    19    1
    29     4     5    1
    30     5    20    1
    31    20    21    1
    32     5     6    1
    33    32    33   ar
    34    33    34   ar
    35    34    24   ar
    36    33    27   ar
    37     6     1    1
    38    15    10   ar
    39    19    12    1
    40     7     8    1
@<TRIPOS>MOLECULE
*****
 36 40 0 0 0
SMALL
GASTEIGER

@<TRIPOS>ATOM
      1 N         143.2934  140.4438  160.6369 N.3     1  UNL1       -0.2689
      2 C         144.1036  139.3221  161.2161 C.3     1  UNL1        0.0737
      3 C         143.4180  138.1793  161.9045 C.3     1  UNL1        0.0356
      4 C         141.9222  138.1582  162.0136 C.3     1  UNL1        0.0846
      5 C         141.1120  139.2798  161.4344 C.3     1  UNL1        0.1455
      6 C         141.7976  140.4226  160.7461 C.3     1  UNL1        0.1034
      7 N         141.2365  137.0153  162.7020 N.3     1  UNL1       -0.2915
      8 H         141.6943  136.1617  162.3825 H       1  UNL1        0.1236
      9 C         141.2026  136.9538  164.2003 C.3     1  UNL1        0.1153
     10 C         140.9439  138.1984  164.9964 C.ar    1  UNL1        0.0782
     11 C         142.0415  138.8032  165.8208 C.ar    1  UNL1        0.0562
     12 C         141.7828  140.0478  166.6169 C.ar    1  UNL1        0.1752
     13 C         140.4264  140.6878  166.5887 C.ar    1  UNL1        0.1914
     14 C         139.3288  140.0831  165.7644 C.ar    1  UNL1        0.1384
     15 N         139.5876  138.8384  164.9682 N.ar    1  UNL1       -0.2434
     16 O         140.1677  141.9325  167.3848 O.3     1  UNL1       -0.4668
     17 C         141.2654  142.5372  168.2091 C.3     1  UNL1        0.2527
     18 C         142.6217  141.8973  168.2373 C.3     1  UNL1        0.2526
     19 O         142.8804  140.6526  167.4412 O.3     1  UNL1       -0.4683
     20 O         139.6160  139.2586  161.5436 O.3     1  UNL1       -0.3508
     21 C         138.7740  139.2186  160.3029 C.3     1  UNL1        0.1741
     22 C         143.9791  141.5866  159.9485 C.3     1  UNL1        0.0970
     23 C         144.4856  142.7494  160.7493 C.3     1  UNL1        0.1264
     24 C         140.6825  145.0382  161.4896 C.ar    1  UNL1        0.1403
     25 C         140.1964  145.2512  162.8925 C.ar    1  UNL1        0.0385
     26 C         140.9780  144.7014  164.0487 C.ar    1  UNL1        0.0237
     27 C         142.2457  143.9385  163.8020 C.ar    1  UNL1        0.0975
     28 N         143.0273  143.3886  164.9582 N.ar    1  UNL1       -0.2374
     29 C         144.2949  142.6257  164.7115 C.ar    1  UNL1        0.1594
     30 C         144.7811  142.4127  163.3085 C.ar    1  UNL1        0.2803
     31 O         146.0488  141.6498  163.0617 O.2     1  UNL1       -0.2653
     32 N         143.9995  142.9625  162.1523 N.ar    1  UNL1       -0.2913
     33 C         142.7318  143.7254  162.3991 C.ar    1  UNL1        0.0832
     34 C         141.9502  144.2753  161.2429 C.ar    1  UNL1        0.0557
     35 C         140.2995  145.2461  158.9283 C.3     1  UNL1        0.2525
     36 O         139.9009  145.5880  160.3334 O.3     1  UNL1       -0.4714
@<TRIPOS>BOND
     1    35    36    1
     2    36    24    1
     3    24    25   ar
     4    25    26   ar
     5    26    27   ar
     6    27    28   ar
     7    28    29   ar
     8    29    30   ar
     9    30    31    2
    10    30    32   ar
    11    32    23    1
    12    23    22    1
    13    22     1    1
    14     1     2    1
    15     2     3    1
    16     3     4    1
    17     4     7    1
    18     7     9    1
    19     9    10    1
    20    10    11   ar
    21    11    12   ar
    22    12    13   ar
    23    13    14   ar
    24    14    15   ar
    25    13    16    1
    26    16    17    1
    27    17    18    1
    28    18    19    1
    29     4     5    1
    30     5    20    1
    31    20    21    1
    32     5     6    1
    33    32    33   ar
    34    33    34   ar
    35    34    24   ar
    36    33    27   ar
    37     6     1    1
    38    15    10   ar
    39    19    12    1
    40     7     8    1
