@<TRIPOS>MOLECULE
*****
 53 58 0 0 0
SMALL
GASTEIGER

@<TRIPOS>ATOM
      1 C         142.0694  143.0684  160.4920 C.3     1  UNL1        0.0840
      2 C         141.0607  144.1761  160.4174 C.3     1  UNL1        0.0376
      3 C         141.0745  145.1261  159.2568 C.3     1  UNL1        0.0738
      4 N         142.0969  144.9685  158.1706 N.3     1  UNL1       -0.2726
      5 C         143.1057  143.8608  158.2452 C.3     1  UNL1        0.0738
      6 C         143.0919  142.9108  159.4059 C.3     1  UNL1        0.0376
      7 N         142.7028  141.5516  164.1042 N.am    1  UNL1       -0.2844
      8 C         142.7166  142.5017  162.9436 C.2     1  UNL1        0.3079
      9 O         143.3913  143.8350  163.0737 O.2     1  UNL1       -0.2522
     10 N         142.0556  142.1183  161.6527 N.am    1  UNL1       -0.2448
     11 H         142.2600  140.6765  164.0188 H       1  UNL1        0.1513
     12 C         141.3809  140.7850  161.5226 C.ar    1  UNL1        0.0574
     13 C         142.1310  139.6172  160.9539 C.ar    1  UNL1        0.0151
     14 C         141.4562  138.2838  160.8238 C.ar    1  UNL1        0.0036
     15 C         140.0314  138.1183  161.2624 C.ar    1  UNL1        0.0297
     16 C         139.2812  139.2862  161.8310 C.ar    1  UNL1        0.1414
     17 F         137.8564  139.1208  162.2696 F       1  UNL1       -0.2041
     18 C         139.9559  140.6195  161.9611 C.ar    1  UNL1        0.0446
     19 C         143.3637  141.9348  165.3951 C.3     1  UNL1        0.1177
     20 C         140.8600  142.8401  169.0230 C.ar    1  UNL1        0.0684
     21 C         142.3203  142.5341  169.1769 C.ar    1  UNL1        0.0100
     22 C         143.1549  142.2324  167.9676 C.ar    1  UNL1       -0.0019
     23 C         142.5292  142.2366  166.6044 C.ar    1  UNL1       -0.0025
     24 C         141.0688  142.5426  166.4505 C.ar    1  UNL1       -0.0019
     25 C         140.2342  142.8443  167.6598 C.ar    1  UNL1        0.0100
     26 N         139.1908  143.4435  171.4416 N.1     1  UNL1       -0.1908
     27 C         140.0254  143.1418  170.2323 C.1     1  UNL1        0.1004
     28 C         142.1107  145.9186  157.0100 C.3     1  UNL1        0.0724
     29 C         141.5703  145.4852  155.6795 C.3     1  UNL1        0.0215
     30 C         140.1960  144.8916  155.5855 C.3     1  UNL1        0.0236
     31 C         141.0080  143.6423  155.7582 C.3     1  UNL1        0.0257
     32 C         140.3294  142.3049  155.7883 C.3     1  UNL1        0.0940
     33 N         138.8389  142.2168  155.6456 N.am    1  UNL1       -0.2760
     34 C         138.1603  140.8794  155.6757 C.2     1  UNL1        0.2520
     35 O         136.6697  140.7914  155.5331 O.2     1  UNL1       -0.2698
     36 C         138.0268  143.4661  155.4730 C.3     1  UNL1        0.0940
     37 C         138.7054  144.8035  155.4429 C.3     1  UNL1        0.0257
     38 C         138.9723  139.6301  155.8484 C.ar    1  UNL1        0.0873
     39 C         139.5707  138.9531  154.6511 C.ar    1  UNL1        0.0099
     40 C         140.3828  137.7038  154.8238 C.ar    1  UNL1        0.0300
     41 C         140.5964  137.1315  156.1938 C.ar    1  UNL1        0.1432
     42 F         141.4085  135.8822  156.3665 F       1  UNL1       -0.2041
     43 C         139.9980  137.8085  157.3911 C.ar    1  UNL1        0.0664
     44 C         139.1859  139.0578  157.2184 C.ar    1  UNL1        0.1402
     45 O         138.5874  139.7349  158.4156 O.3     1  UNL1       -0.5053
     46 H         138.7208  139.3774  159.2714 H       1  UNL1        0.2922
     47 C         139.8613  146.3471  155.4455 C.ar    1  UNL1       -0.0204
     48 C         140.2479  147.0892  154.2005 C.ar    1  UNL1       -0.0041
     49 C         139.9132  148.5446  154.0605 C.ar    1  UNL1        0.0020
     50 C         139.1919  149.2580  155.1654 C.ar    1  UNL1        0.0296
     51 C         138.8053  148.5159  156.4104 C.ar    1  UNL1        0.1398
     52 F         138.0840  149.2294  157.5152 F       1  UNL1       -0.2042
     53 C         139.1400  147.0604  156.5504 C.ar    1  UNL1        0.0254
@<TRIPOS>BOND
     1    26    27    3
     2    27    20    1
     3    20    21   ar
     4    21    22   ar
     5    22    23   ar
     6    23    19    1
     7    19     7    1
     8     7     8   am
     9     8     9    2
    10     8    10   am
    11    10    12    1
    12    12    13   ar
    13    13    14   ar
    14    14    15   ar
    15    15    16   ar
    16    16    17    1
    17    16    18   ar
    18    10     1    1
    19     1     2    1
    20     2     3    1
    21     3     4    1
    22     4    28    1
    23    28    29    1
    24    29    30    1
    25    30    47    1
    26    47    48   ar
    27    48    49   ar
    28    49    50   ar
    29    50    51   ar
    30    51    52    1
    31    51    53   ar
    32    30    31    1
    33    31    32    1
    34    32    33    1
    35    33    34   am
    36    34    35    2
    37    34    38    1
    38    38    39   ar
    39    39    40   ar
    40    40    41   ar
    41    41    42    1
    42    41    43   ar
    43    43    44   ar
    44    44    45    1
    45    33    36    1
    46    36    37    1
    47     4     5    1
    48     5     6    1
    49    23    24   ar
    50    24    25   ar
    51    25    20   ar
    52    18    12   ar
    53     6     1    1
    54    37    30    1
    55    53    47   ar
    56    44    38   ar
    57     7    11    1
    58    45    46    1
@<TRIPOS>MOLECULE
*****
 53 58 0 0 0
SMALL
GASTEIGER

@<TRIPOS>ATOM
      1 C         141.3621  143.7337  160.1562 C.3     1  UNL1        0.0840
      2 C         142.4400  143.3933  159.1702 C.3     1  UNL1        0.0376
      3 C         142.6116  144.2210  157.9310 C.3     1  UNL1        0.0738
      4 N         141.7053  145.3891  157.6779 N.3     1  UNL1       -0.2726
      5 C         140.6274  145.7296  158.6639 C.3     1  UNL1        0.0738
      6 C         140.4558  144.9019  159.9030 C.3     1  UNL1        0.0376
      7 N         141.9698  142.2416  163.7830 N.am    1  UNL1       -0.2844
      8 C         142.1414  143.0692  162.5439 C.2     1  UNL1        0.3079
      9 O         143.2639  144.0600  162.4533 O.2     1  UNL1       -0.2522
     10 N         141.1905  142.9061  161.3953 N.am    1  UNL1       -0.2448
     11 H         141.2331  141.5913  163.8425 H       1  UNL1        0.1513
     12 C         140.0680  141.9153  161.4860 C.ar    1  UNL1        0.0574
     13 C         138.8136  142.2688  162.2286 C.ar    1  UNL1        0.0151
     14 C         137.6911  141.2780  162.3192 C.ar    1  UNL1        0.0036
     15 C         137.8230  139.9336  161.6672 C.ar    1  UNL1        0.0297
     16 C         139.0774  139.5800  160.9246 C.ar    1  UNL1        0.1414
     17 F         139.2092  138.2356  160.2726 F       1  UNL1       -0.2041
     18 C         140.1998  140.5708  160.8339 C.ar    1  UNL1        0.0446
     19 C         142.9207  142.4047  164.9316 C.3     1  UNL1        0.1177
     20 C         141.3830  142.2920  169.1592 C.ar    1  UNL1        0.0684
     21 C         140.4200  142.3861  168.0131 C.ar    1  UNL1        0.0100
     22 C         140.9325  142.4237  166.6039 C.ar    1  UNL1       -0.0019
     23 C         142.4082  142.3671  166.3408 C.ar    1  UNL1       -0.0025
     24 C         143.3712  142.2730  167.4869 C.ar    1  UNL1       -0.0019
     25 C         142.8587  142.2355  168.8961 C.ar    1  UNL1        0.0100
     26 N         140.3579  142.2169  171.9776 N.1     1  UNL1       -0.1908
     27 C         140.8705  142.2545  170.5684 C.1     1  UNL1        0.1004
     28 C         141.8769  146.2168  156.4387 C.3     1  UNL1        0.0724
     29 C         141.1778  145.8234  155.1713 C.3     1  UNL1        0.0215
     30 C         139.7409  145.3945  155.2094 C.3     1  UNL1        0.0236
     31 C         140.4145  144.0588  155.3196 C.3     1  UNL1        0.0257
     32 C         139.5906  142.8097  155.4251 C.3     1  UNL1        0.0940
     33 N         138.0931  142.8964  155.4203 N.am    1  UNL1       -0.2760
     34 C         137.2692  141.6474  155.5258 C.2     1  UNL1        0.2520
     35 O         135.7717  141.7342  155.5210 O.2     1  UNL1       -0.2698
     36 C         137.4195  144.2321  155.3100 C.3     1  UNL1        0.0940
     37 C         138.2435  145.4812  155.2046 C.3     1  UNL1        0.0257
     38 C         137.9428  140.3117  155.6361 C.ar    1  UNL1        0.0873
     39 C         138.8026  140.0013  156.8252 C.ar    1  UNL1        0.0099
     40 C         139.4762  138.6656  156.9355 C.ar    1  UNL1        0.0300
     41 C         139.2899  137.6403  155.8565 C.ar    1  UNL1        0.1432
     42 F         139.9635  136.3046  155.9668 F       1  UNL1       -0.2041
     43 C         138.4300  137.9507  154.6674 C.ar    1  UNL1        0.0664
     44 C         137.7564  139.2864  154.5571 C.ar    1  UNL1        0.1402
     45 O         136.8965  139.5969  153.3679 O.3     1  UNL1       -0.5053
     46 H         136.7801  138.9565  152.6939 H       1  UNL1        0.2922
     47 C         139.5664  146.8792  155.0858 C.ar    1  UNL1       -0.0204
     48 C         140.1270  147.6040  153.8982 C.ar    1  UNL1       -0.0041
     49 C         139.9525  149.0887  153.7747 C.ar    1  UNL1        0.0020
     50 C         139.2174  149.8485  154.8387 C.ar    1  UNL1        0.0296
     51 C         138.6569  149.1237  156.0264 C.ar    1  UNL1        0.1398
     52 F         137.9218  149.8836  157.0904 F       1  UNL1       -0.2042
     53 C         138.8314  147.6390  156.1499 C.ar    1  UNL1        0.0254
@<TRIPOS>BOND
     1    26    27    3
     2    27    20    1
     3    20    21   ar
     4    21    22   ar
     5    22    23   ar
     6    23    19    1
     7    19     7    1
     8     7     8   am
     9     8     9    2
    10     8    10   am
    11    10    12    1
    12    12    13   ar
    13    13    14   ar
    14    14    15   ar
    15    15    16   ar
    16    16    17    1
    17    16    18   ar
    18    10     1    1
    19     1     2    1
    20     2     3    1
    21     3     4    1
    22     4    28    1
    23    28    29    1
    24    29    30    1
    25    30    47    1
    26    47    48   ar
    27    48    49   ar
    28    49    50   ar
    29    50    51   ar
    30    51    52    1
    31    51    53   ar
    32    30    31    1
    33    31    32    1
    34    32    33    1
    35    33    34   am
    36    34    35    2
    37    34    38    1
    38    38    39   ar
    39    39    40   ar
    40    40    41   ar
    41    41    42    1
    42    41    43   ar
    43    43    44   ar
    44    44    45    1
    45    33    36    1
    46    36    37    1
    47     4     5    1
    48     5     6    1
    49    23    24   ar
    50    24    25   ar
    51    25    20   ar
    52    18    12   ar
    53     6     1    1
    54    37    30    1
    55    53    47   ar
    56    44    38   ar
    57     7    11    1
    58    45    46    1
@<TRIPOS>MOLECULE
*****
 53 58 0 0 0
SMALL
GASTEIGER

@<TRIPOS>ATOM
      1 C         140.4053  143.7812  157.7367 C.3     1  UNL1        0.0840
      2 C         141.3389  142.6177  157.8936 C.3     1  UNL1        0.0376
      3 C         141.8258  142.2254  159.2571 C.3     1  UNL1        0.0738
      4 N         141.3791  142.9965  160.4636 N.3     1  UNL1       -0.2726
      5 C         140.4454  144.1600  160.3067 C.3     1  UNL1        0.0738
      6 C         139.9585  144.5523  158.9432 C.3     1  UNL1        0.0376
      7 N         140.0148  145.7640  154.3211 N.am    1  UNL1       -0.2844
      8 C         140.5017  145.3717  155.6846 C.2     1  UNL1        0.3079
      9 O         141.5719  146.1775  156.3594 O.2     1  UNL1       -0.2522
     10 N         139.9184  144.1735  156.3732 N.am    1  UNL1       -0.2448
     11 H         139.3124  145.2351  153.8782 H       1  UNL1        0.1513
     12 C         138.8483  143.3677  155.6984 C.ar    1  UNL1        0.0574
     13 C         137.4096  143.7709  155.8313 C.ar    1  UNL1        0.0151
     14 C         136.3394  142.9651  155.1564 C.ar    1  UNL1        0.0036
     15 C         136.7079  141.7560  154.3487 C.ar    1  UNL1        0.0297
     16 C         138.1466  141.3528  154.2158 C.ar    1  UNL1        0.1414
     17 F         138.5151  140.1438  153.4081 F       1  UNL1       -0.2041
     18 C         139.2168  142.1586  154.8906 C.ar    1  UNL1        0.0446
     19 C         140.5981  146.9622  153.6325 C.3     1  UNL1        0.1177
     20 C         139.2890  151.1000  154.8220 C.ar    1  UNL1        0.0684
     21 C         138.6940  149.9013  155.4996 C.ar    1  UNL1        0.0100
     22 C         139.1304  148.5220  155.1031 C.ar    1  UNL1       -0.0019
     23 C         140.1617  148.3414  154.0290 C.ar    1  UNL1       -0.0025
     24 C         140.7567  149.5401  153.3514 C.ar    1  UNL1       -0.0019
     25 C         140.3204  150.9194  153.7479 C.ar    1  UNL1        0.0100
     26 N         138.4164  153.8585  155.6150 N.1     1  UNL1       -0.1908
     27 C         138.8527  152.4792  155.2185 C.1     1  UNL1        0.1004
     28 C         141.8660  142.6042  161.8270 C.3     1  UNL1        0.0724
     29 C         142.0407  141.1551  162.1728 C.3     1  UNL1        0.0215
     30 C         141.1203  140.5037  163.1619 C.3     1  UNL1        0.0236
     31 C         141.9379  141.3545  164.0880 C.3     1  UNL1        0.0257
     32 C         141.6621  141.3370  165.5624 C.3     1  UNL1        0.0940
     33 N         140.5687  140.4687  166.1106 N.am    1  UNL1       -0.2760
     34 C         140.2930  140.4512  167.5850 C.2     1  UNL1        0.2520
     35 O         139.1995  139.5830  168.1331 O.2     1  UNL1       -0.2698
     36 C         139.7511  139.6180  165.1845 C.3     1  UNL1        0.0940
     37 C         140.0269  139.6355  163.7102 C.3     1  UNL1        0.0257
     38 C         141.1106  141.3020  168.5110 C.ar    1  UNL1        0.0873
     39 C         140.5822  142.6269  168.9752 C.ar    1  UNL1        0.0099
     40 C         141.3999  143.4777  169.9013 C.ar    1  UNL1        0.0300
     41 C         142.7460  143.0035  170.3632 C.ar    1  UNL1        0.1432
     42 F         143.5636  143.8543  171.2892 F       1  UNL1       -0.2041
     43 C         143.2743  141.6786  169.8990 C.ar    1  UNL1        0.0664
     44 C         142.4567  140.8279  168.9729 C.ar    1  UNL1        0.1402
     45 O         142.9850  139.5030  168.5087 O.3     1  UNL1       -0.5053
     46 H         143.8258  139.2068  168.7972 H       1  UNL1        0.2922
     47 C         140.6223  139.8792  161.8923 C.ar    1  UNL1       -0.0204
     48 C         141.5274  138.9955  161.0860 C.ar    1  UNL1       -0.0041
     49 C         141.0294  138.3710  159.8163 C.ar    1  UNL1        0.0020
     50 C         139.6265  138.6301  159.3530 C.ar    1  UNL1        0.0296
     51 C         138.7215  139.5137  160.1594 C.ar    1  UNL1        0.1398
     52 F         137.3186  139.7727  159.6960 F       1  UNL1       -0.2042
     53 C         139.2194  140.1382  161.4290 C.ar    1  UNL1        0.0254
@<TRIPOS>BOND
     1    26    27    3
     2    27    20    1
     3    20    21   ar
     4    21    22   ar
     5    22    23   ar
     6    23    19    1
     7    19     7    1
     8     7     8   am
     9     8     9    2
    10     8    10   am
    11    10    12    1
    12    12    13   ar
    13    13    14   ar
    14    14    15   ar
    15    15    16   ar
    16    16    17    1
    17    16    18   ar
    18    10     1    1
    19     1     2    1
    20     2     3    1
    21     3     4    1
    22     4    28    1
    23    28    29    1
    24    29    30    1
    25    30    47    1
    26    47    48   ar
    27    48    49   ar
    28    49    50   ar
    29    50    51   ar
    30    51    52    1
    31    51    53   ar
    32    30    31    1
    33    31    32    1
    34    32    33    1
    35    33    34   am
    36    34    35    2
    37    34    38    1
    38    38    39   ar
    39    39    40   ar
    40    40    41   ar
    41    41    42    1
    42    41    43   ar
    43    43    44   ar
    44    44    45    1
    45    33    36    1
    46    36    37    1
    47     4     5    1
    48     5     6    1
    49    23    24   ar
    50    24    25   ar
    51    25    20   ar
    52    18    12   ar
    53     6     1    1
    54    37    30    1
    55    53    47   ar
    56    44    38   ar
    57     7    11    1
    58    45    46    1
@<TRIPOS>MOLECULE
*****
 53 58 0 0 0
SMALL
GASTEIGER

@<TRIPOS>ATOM
      1 C         140.9686  139.4939  160.2102 C.3     1  UNL1        0.0840
      2 C         142.3748  138.9798  160.1200 C.3     1  UNL1        0.0376
      3 C         142.7902  138.1323  158.9542 C.3     1  UNL1        0.0738
      4 N         141.7993  137.7988  157.8786 N.3     1  UNL1       -0.2726
      5 C         140.3930  138.3129  157.9688 C.3     1  UNL1        0.0738
      6 C         139.9777  139.1605  159.1346 C.3     1  UNL1        0.0376
      7 N         139.5066  140.5525  163.7446 N.am    1  UNL1       -0.2844
      8 C         139.9220  139.7050  162.5788 C.2     1  UNL1        0.3079
      9 O         139.7061  138.2211  162.6157 O.2     1  UNL1       -0.2522
     10 N         140.5532  140.3414  161.3761 N.am    1  UNL1       -0.2448
     11 H         139.6483  141.5265  163.7204 H       1  UNL1        0.1513
     12 C         140.7691  141.8253  161.3392 C.ar    1  UNL1        0.0574
     13 C         139.7235  142.7208  160.7436 C.ar    1  UNL1        0.0151
     14 C         139.9395  144.2048  160.7067 C.ar    1  UNL1        0.0036
     15 C         141.2010  144.7932  161.2655 C.ar    1  UNL1        0.0297
     16 C         142.2466  143.8977  161.8612 C.ar    1  UNL1        0.1414
     17 F         143.5081  144.4861  162.4199 F       1  UNL1       -0.2041
     18 C         142.0307  142.4138  161.8980 C.ar    1  UNL1        0.0446
     19 C         138.8753  139.9162  164.9473 C.3     1  UNL1        0.1177
     20 C         140.0211  141.2838  169.0785 C.ar    1  UNL1        0.0684
     21 C         139.2558  140.0066  168.8966 C.ar    1  UNL1        0.0100
     22 C         138.8739  139.5507  167.5196 C.ar    1  UNL1       -0.0019
     23 C         139.2572  140.3720  166.3244 C.ar    1  UNL1       -0.0025
     24 C         140.0225  141.6492  166.5063 C.ar    1  UNL1       -0.0019
     25 C         140.4045  142.1051  167.8834 C.ar    1  UNL1        0.0100
     26 N         140.7849  142.1955  171.8327 N.1     1  UNL1       -0.1908
     27 C         140.4030  141.7396  170.4556 C.1     1  UNL1        0.1004
     28 C         142.2147  136.9513  156.7127 C.3     1  UNL1        0.0724
     29 C         141.1751  136.3565  155.8098 C.3     1  UNL1        0.0215
     30 C         141.5548  135.2819  154.8345 C.3     1  UNL1        0.0236
     31 C         141.9043  134.5991  156.1235 C.3     1  UNL1        0.0257
     32 C         142.4664  133.2085  156.1072 C.3     1  UNL1        0.0940
     33 N         142.6790  132.5007  154.8020 N.am    1  UNL1       -0.2760
     34 C         143.2410  131.1100  154.7857 C.2     1  UNL1        0.2520
     35 O         143.4536  130.4023  153.4803 O.2     1  UNL1       -0.2698
     36 C         142.3295  133.1835  153.5129 C.3     1  UNL1        0.0940
     37 C         141.7674  134.5742  153.5292 C.3     1  UNL1        0.0257
     38 C         143.5905  130.4272  156.0747 C.ar    1  UNL1        0.0873
     39 C         142.7681  129.2693  156.5570 C.ar    1  UNL1        0.0099
     40 C         143.1175  128.5865  157.8460 C.ar    1  UNL1        0.0300
     41 C         144.2895  129.0617  158.6527 C.ar    1  UNL1        0.1432
     42 F         144.6390  128.3788  159.9418 F       1  UNL1       -0.2041
     43 C         145.1119  130.2196  158.1704 C.ar    1  UNL1        0.0664
     44 C         144.7625  130.9024  156.8814 C.ar    1  UNL1        0.1402
     45 O         145.5849  132.0604  156.3990 O.3     1  UNL1       -0.5053
     46 H         146.3169  132.3573  156.9029 H       1  UNL1        0.2922
     47 C         141.0735  136.3380  153.8842 C.ar    1  UNL1       -0.0204
     48 C         142.0307  136.9693  152.9171 C.ar    1  UNL1       -0.0041
     49 C         141.5493  138.0254  151.9668 C.ar    1  UNL1        0.0020
     50 C         140.1108  138.4501  151.9836 C.ar    1  UNL1        0.0296
     51 C         139.1536  137.8187  152.9507 C.ar    1  UNL1        0.1398
     52 F         137.7151  138.2435  152.9675 F       1  UNL1       -0.2042
     53 C         139.6350  136.7627  153.9010 C.ar    1  UNL1        0.0254
@<TRIPOS>BOND
     1    26    27    3
     2    27    20    1
     3    20    21   ar
     4    21    22   ar
     5    22    23   ar
     6    23    19    1
     7    19     7    1
     8     7     8   am
     9     8     9    2
    10     8    10   am
    11    10    12    1
    12    12    13   ar
    13    13    14   ar
    14    14    15   ar
    15    15    16   ar
    16    16    17    1
    17    16    18   ar
    18    10     1    1
    19     1     2    1
    20     2     3    1
    21     3     4    1
    22     4    28    1
    23    28    29    1
    24    29    30    1
    25    30    47    1
    26    47    48   ar
    27    48    49   ar
    28    49    50   ar
    29    50    51   ar
    30    51    52    1
    31    51    53   ar
    32    30    31    1
    33    31    32    1
    34    32    33    1
    35    33    34   am
    36    34    35    2
    37    34    38    1
    38    38    39   ar
    39    39    40   ar
    40    40    41   ar
    41    41    42    1
    42    41    43   ar
    43    43    44   ar
    44    44    45    1
    45    33    36    1
    46    36    37    1
    47     4     5    1
    48     5     6    1
    49    23    24   ar
    50    24    25   ar
    51    25    20   ar
    52    18    12   ar
    53     6     1    1
    54    37    30    1
    55    53    47   ar
    56    44    38   ar
    57     7    11    1
    58    45    46    1
@<TRIPOS>MOLECULE
*****
 53 58 0 0 0
SMALL
GASTEIGER

@<TRIPOS>ATOM
      1 C         143.1442  140.7855  157.7317 C.3     1  UNL1        0.0840
      2 C         143.7557  140.2069  158.9731 C.3     1  UNL1        0.0376
      3 C         143.4594  140.8185  160.3103 C.3     1  UNL1        0.0738
      4 N         142.5517  142.0088  160.4061 N.3     1  UNL1       -0.2726
      5 C         141.9401  142.5875  159.1647 C.3     1  UNL1        0.0738
      6 C         142.2364  141.9759  157.8274 C.3     1  UNL1        0.0376
      7 N         142.9640  138.3632  154.5932 N.am    1  UNL1       -0.2844
      8 C         142.6678  138.9748  155.9304 C.2     1  UNL1        0.3079
      9 O         141.5990  138.3874  156.8036 O.2     1  UNL1       -0.2522
     10 N         143.4404  140.1739  156.3945 N.am    1  UNL1       -0.2448
     11 H         143.6656  138.7488  154.0201 H       1  UNL1        0.1513
     12 C         144.5093  140.7614  155.5213 C.ar    1  UNL1        0.0574
     13 C         144.1498  141.3516  154.1900 C.ar    1  UNL1        0.0151
     14 C         145.2187  141.9391  153.3168 C.ar    1  UNL1        0.0036
     15 C         146.6470  141.9363  153.7749 C.ar    1  UNL1        0.0297
     16 C         147.0065  141.3460  155.1062 C.ar    1  UNL1        0.1414
     17 F         148.4348  141.3432  155.5644 F       1  UNL1       -0.2041
     18 C         145.9376  140.7586  155.9794 C.ar    1  UNL1        0.0446
     19 C         142.1915  137.1642  154.1291 C.3     1  UNL1        0.1177
     20 C         142.8528  133.1661  156.0856 C.ar    1  UNL1        0.0684
     21 C         143.8868  134.2449  156.2156 C.ar    1  UNL1        0.0100
     22 C         143.6664  135.5776  155.5634 C.ar    1  UNL1       -0.0019
     23 C         142.4119  135.8315  154.7813 C.ar    1  UNL1       -0.0025
     24 C         141.3779  134.7527  154.6513 C.ar    1  UNL1       -0.0019
     25 C         141.5984  133.4200  155.3034 C.ar    1  UNL1        0.0100
     26 N         143.2937  130.5007  157.3899 N.1     1  UNL1       -0.1908
     27 C         143.0733  131.8334  156.7377 C.1     1  UNL1        0.1004
     28 C         142.2554  142.6204  161.7434 C.3     1  UNL1        0.0724
     29 C         140.8344  142.7851  162.1945 C.3     1  UNL1        0.0215
     30 C         140.2265  141.7890  163.1370 C.3     1  UNL1        0.0236
     31 C         141.0553  142.5866  164.0998 C.3     1  UNL1        0.0257
     32 C         141.0616  142.2312  165.5572 C.3     1  UNL1        0.0940
     33 N         140.2392  141.0783  166.0516 N.am    1  UNL1       -0.2760
     34 C         140.2456  140.7230  167.5089 C.2     1  UNL1        0.2520
     35 O         139.4232  139.5701  168.0033 O.2     1  UNL1       -0.2698
     36 C         139.4105  140.2808  165.0888 C.3     1  UNL1        0.0940
     37 C         139.4041  140.6362  163.6315 C.3     1  UNL1        0.0257
     38 C         141.0744  141.5205  168.4717 C.ar    1  UNL1        0.0873
     39 C         140.5276  142.7863  169.0623 C.ar    1  UNL1        0.0099
     40 C         141.3564  143.5838  170.0251 C.ar    1  UNL1        0.0300
     41 C         142.7320  143.1155  170.3974 C.ar    1  UNL1        0.1432
     42 F         143.5608  143.9131  171.3602 F       1  UNL1       -0.2041
     43 C         143.2788  141.8498  169.8068 C.ar    1  UNL1        0.0664
     44 C         142.4500  141.0522  168.8440 C.ar    1  UNL1        0.1402
     45 O         142.9966  139.7864  168.2534 O.3     1  UNL1       -0.5053
     46 H         143.8559  139.4938  168.4859 H       1  UNL1        0.2922
     47 C         139.6089  141.3374  161.8468 C.ar    1  UNL1       -0.0204
     48 C         138.7980  142.2970  161.0272 C.ar    1  UNL1       -0.0041
     49 C         138.1804  141.8454  159.7370 C.ar    1  UNL1        0.0020
     50 C         138.3736  140.4344  159.2665 C.ar    1  UNL1        0.0296
     51 C         139.1844  139.4748  160.0861 C.ar    1  UNL1        0.1398
     52 F         139.3775  138.0637  159.6155 F       1  UNL1       -0.2042
     53 C         139.8020  139.9263  161.3763 C.ar    1  UNL1        0.0254
@<TRIPOS>BOND
     1    26    27    3
     2    27    20    1
     3    20    21   ar
     4    21    22   ar
     5    22    23   ar
     6    23    19    1
     7    19     7    1
     8     7     8   am
     9     8     9    2
    10     8    10   am
    11    10    12    1
    12    12    13   ar
    13    13    14   ar
    14    14    15   ar
    15    15    16   ar
    16    16    17    1
    17    16    18   ar
    18    10     1    1
    19     1     2    1
    20     2     3    1
    21     3     4    1
    22     4    28    1
    23    28    29    1
    24    29    30    1
    25    30    47    1
    26    47    48   ar
    27    48    49   ar
    28    49    50   ar
    29    50    51   ar
    30    51    52    1
    31    51    53   ar
    32    30    31    1
    33    31    32    1
    34    32    33    1
    35    33    34   am
    36    34    35    2
    37    34    38    1
    38    38    39   ar
    39    39    40   ar
    40    40    41   ar
    41    41    42    1
    42    41    43   ar
    43    43    44   ar
    44    44    45    1
    45    33    36    1
    46    36    37    1
    47     4     5    1
    48     5     6    1
    49    23    24   ar
    50    24    25   ar
    51    25    20   ar
    52    18    12   ar
    53     6     1    1
    54    37    30    1
    55    53    47   ar
    56    44    38   ar
    57     7    11    1
    58    45    46    1
@<TRIPOS>MOLECULE
*****
 53 58 0 0 0
SMALL
GASTEIGER

@<TRIPOS>ATOM
      1 C         141.2922  138.4353  160.5196 C.3     1  UNL1        0.0840
      2 C         139.9202  138.1683  161.0639 C.3     1  UNL1        0.0376
      3 C         139.6788  138.2122  162.5437 C.3     1  UNL1        0.0738
      4 N         140.8094  138.5230  163.4792 N.3     1  UNL1       -0.2726
      5 C         142.1815  138.7900  162.9349 C.3     1  UNL1        0.0738
      6 C         142.4229  138.7461  161.4551 C.3     1  UNL1        0.0376
      7 N         142.6846  137.3059  156.9790 N.am    1  UNL1       -0.2844
      8 C         142.4432  137.3497  158.4588 C.2     1  UNL1        0.3079
      9 O         143.1113  136.3519  159.3576 O.2     1  UNL1       -0.2522
     10 N         141.5336  138.3915  159.0398 N.am    1  UNL1       -0.2448
     11 H         142.2461  137.9608  156.3891 H       1  UNL1        0.1513
     12 C         140.8655  139.3893  158.1410 C.ar    1  UNL1        0.0574
     13 C         139.4187  139.2239  157.7812 C.ar    1  UNL1        0.0151
     14 C         138.7506  140.2218  156.8823 C.ar    1  UNL1        0.0036
     15 C         139.5293  141.3851  156.3434 C.ar    1  UNL1        0.0297
     16 C         140.9760  141.5505  156.7032 C.ar    1  UNL1        0.1414
     17 F         141.7547  142.7137  156.1643 F       1  UNL1       -0.2041
     18 C         141.6442  140.5526  157.6020 C.ar    1  UNL1        0.0446
     19 C         143.5941  136.2642  156.3980 C.3     1  UNL1        0.1177
     20 C         142.0189  132.1432  155.5115 C.ar    1  UNL1        0.0684
     21 C         141.6899  133.2849  154.5959 C.ar    1  UNL1        0.0100
     22 C         142.2150  134.6586  154.8914 C.ar    1  UNL1       -0.0019
     23 C         143.0691  134.8906  156.1025 C.ar    1  UNL1       -0.0025
     24 C         143.3980  133.7489  157.0181 C.ar    1  UNL1       -0.0019
     25 C         142.8729  132.3752  156.7226 C.ar    1  UNL1        0.0100
     26 N         140.9687  129.3959  154.9205 N.1     1  UNL1       -0.1908
     27 C         141.4938  130.7696  155.2160 C.1     1  UNL1        0.1004
     28 C         140.5680  138.5668  164.9590 C.3     1  UNL1        0.0724
     29 C         140.0924  139.8347  165.6041 C.3     1  UNL1        0.0215
     30 C         140.9975  141.0292  165.6676 C.3     1  UNL1        0.0236
     31 C         140.4909  141.1606  164.2619 C.3     1  UNL1        0.0257
     32 C         140.9562  142.2969  163.4001 C.3     1  UNL1        0.0940
     33 N         141.9280  143.3016  163.9441 N.am    1  UNL1       -0.2760
     34 C         142.3933  144.4379  163.0824 C.2     1  UNL1        0.2520
     35 O         143.3651  145.4426  163.6265 O.2     1  UNL1       -0.2698
     36 C         142.4346  143.1701  165.3499 C.3     1  UNL1        0.0940
     37 C         141.9693  142.0339  166.2116 C.3     1  UNL1        0.0257
     38 C         141.8867  144.5693  161.6767 C.ar    1  UNL1        0.0873
     39 C         142.5585  143.8204  160.5643 C.ar    1  UNL1        0.0099
     40 C         142.0519  143.9518  159.1585 C.ar    1  UNL1        0.0300
     41 C         140.8734  144.8323  158.8653 C.ar    1  UNL1        0.1432
     42 F         140.3667  144.9638  157.4596 F       1  UNL1       -0.2041
     43 C         140.2015  145.5812  159.9778 C.ar    1  UNL1        0.0664
     44 C         140.7081  145.4498  161.3835 C.ar    1  UNL1        0.1402
     45 O         140.0363  146.1987  162.4960 O.3     1  UNL1       -0.5053
     46 H         139.3002  146.7487  162.3129 H       1  UNL1        0.2922
     47 C         141.1897  140.4828  167.0512 C.ar    1  UNL1       -0.0204
     48 C         142.5060  139.8794  167.4432 C.ar    1  UNL1       -0.0041
     49 C         142.6982  139.3331  168.8268 C.ar    1  UNL1        0.0020
     50 C         141.5743  139.3901  169.8185 C.ar    1  UNL1        0.0296
     51 C         140.2581  139.9935  169.4266 C.ar    1  UNL1        0.1398
     52 F         139.1342  140.0505  170.4184 F       1  UNL1       -0.2042
     53 C         140.0659  140.5398  168.0429 C.ar    1  UNL1        0.0254
@<TRIPOS>BOND
     1    26    27    3
     2    27    20    1
     3    20    21   ar
     4    21    22   ar
     5    22    23   ar
     6    23    19    1
     7    19     7    1
     8     7     8   am
     9     8     9    2
    10     8    10   am
    11    10    12    1
    12    12    13   ar
    13    13    14   ar
    14    14    15   ar
    15    15    16   ar
    16    16    17    1
    17    16    18   ar
    18    10     1    1
    19     1     2    1
    20     2     3    1
    21     3     4    1
    22     4    28    1
    23    28    29    1
    24    29    30    1
    25    30    47    1
    26    47    48   ar
    27    48    49   ar
    28    49    50   ar
    29    50    51   ar
    30    51    52    1
    31    51    53   ar
    32    30    31    1
    33    31    32    1
    34    32    33    1
    35    33    34   am
    36    34    35    2
    37    34    38    1
    38    38    39   ar
    39    39    40   ar
    40    40    41   ar
    41    41    42    1
    42    41    43   ar
    43    43    44   ar
    44    44    45    1
    45    33    36    1
    46    36    37    1
    47     4     5    1
    48     5     6    1
    49    23    24   ar
    50    24    25   ar
    51    25    20   ar
    52    18    12   ar
    53     6     1    1
    54    37    30    1
    55    53    47   ar
    56    44    38   ar
    57     7    11    1
    58    45    46    1
@<TRIPOS>MOLECULE
*****
 53 58 0 0 0
SMALL
GASTEIGER

@<TRIPOS>ATOM
      1 C         140.7441  140.0401  158.5901 C.3     1  UNL1        0.0840
      2 C         139.6655  141.0730  158.4505 C.3     1  UNL1        0.0376
      3 C         138.9753  141.6063  159.6709 C.3     1  UNL1        0.0738
      4 N         139.3637  141.1066  161.0308 N.3     1  UNL1       -0.2726
      5 C         140.4423  140.0736  161.1704 C.3     1  UNL1        0.0738
      6 C         141.1326  139.5404  159.9501 C.3     1  UNL1        0.0376
      7 N         141.6870  137.6701  155.5497 N.am    1  UNL1       -0.2844
      8 C         140.9967  138.2034  156.7700 C.2     1  UNL1        0.3079
      9 O         139.8690  137.4333  157.3906 O.2     1  UNL1       -0.2522
     10 N         141.4343  139.5068  157.3698 N.am    1  UNL1       -0.2448
     11 H         142.4271  138.1755  155.1424 H       1  UNL1        0.1513
     12 C         142.5621  140.2769  156.7493 C.ar    1  UNL1        0.0574
     13 C         143.9385  140.1981  157.3401 C.ar    1  UNL1        0.0151
     14 C         145.0663  140.9682  156.7195 C.ar    1  UNL1        0.0036
     15 C         144.8176  141.8171  155.5081 C.ar    1  UNL1        0.0297
     16 C         143.4411  141.8958  154.9172 C.ar    1  UNL1        0.1414
     17 F         143.1924  142.7446  153.7058 F       1  UNL1       -0.2041
     18 C         142.3134  141.1257  155.5378 C.ar    1  UNL1        0.0446
     19 C         141.2494  136.3667  154.9499 C.3     1  UNL1        0.1177
     20 C         142.8342  132.4889  156.5934 C.ar    1  UNL1        0.0684
     21 C         143.3087  133.7938  157.1610 C.ar    1  UNL1        0.0100
     22 C         142.7805  135.0864  156.6131 C.ar    1  UNL1       -0.0019
     23 C         141.7777  135.0741  155.4977 C.ar    1  UNL1       -0.0025
     24 C         141.3032  133.7693  154.9301 C.ar    1  UNL1       -0.0019
     25 C         141.8314  132.4767  155.4779 C.ar    1  UNL1        0.0100
     26 N         143.8908  129.9037  157.6890 N.1     1  UNL1       -0.1908
     27 C         143.3625  131.1963  157.1412 C.1     1  UNL1        0.1004
     28 C         138.6734  141.6399  162.2511 C.3     1  UNL1        0.0724
     29 C         139.0325  142.9954  162.7837 C.3     1  UNL1        0.0215
     30 C         140.3494  143.2068  163.4701 C.3     1  UNL1        0.0236
     31 C         139.6114  142.4653  164.5451 C.3     1  UNL1        0.0257
     32 C         140.2878  142.1673  165.8504 C.3     1  UNL1        0.0940
     33 N         141.7021  142.6107  166.0806 N.am    1  UNL1       -0.2760
     34 C         142.3785  142.3127  167.3859 C.2     1  UNL1        0.2520
     35 O         143.7928  142.7561  167.6161 O.2     1  UNL1       -0.2698
     36 C         142.4401  143.3522  165.0057 C.3     1  UNL1        0.0940
     37 C         141.7637  143.6502  163.7004 C.3     1  UNL1        0.0257
     38 C         141.6405  141.5712  168.4609 C.ar    1  UNL1        0.0873
     39 C         140.5164  142.2387  169.1961 C.ar    1  UNL1        0.0099
     40 C         139.7784  141.4973  170.2711 C.ar    1  UNL1        0.0300
     41 C         140.1646  140.0882  170.6108 C.ar    1  UNL1        0.1432
     42 F         139.4267  139.3467  171.6858 F       1  UNL1       -0.2041
     43 C         141.2888  139.4206  169.8756 C.ar    1  UNL1        0.0664
     44 C         142.0268  140.1621  168.8006 C.ar    1  UNL1        0.1402
     45 O         143.1509  139.4946  168.0654 O.3     1  UNL1       -0.5053
     46 H         143.3922  138.6144  168.2775 H       1  UNL1        0.2922
     47 C         140.6300  143.8748  162.1567 C.ar    1  UNL1       -0.0204
     48 C         139.7456  144.9875  161.6772 C.ar    1  UNL1       -0.0041
     49 C         140.0262  145.6556  160.3638 C.ar    1  UNL1        0.0020
     50 C         141.1910  145.2110  159.5300 C.ar    1  UNL1        0.0296
     51 C         142.0754  144.0983  160.0095 C.ar    1  UNL1        0.1398
     52 F         143.2403  143.6538  159.1756 F       1  UNL1       -0.2042
     53 C         141.7948  143.4303  161.3229 C.ar    1  UNL1        0.0254
@<TRIPOS>BOND
     1    26    27    3
     2    27    20    1
     3    20    21   ar
     4    21    22   ar
     5    22    23   ar
     6    23    19    1
     7    19     7    1
     8     7     8   am
     9     8     9    2
    10     8    10   am
    11    10    12    1
    12    12    13   ar
    13    13    14   ar
    14    14    15   ar
    15    15    16   ar
    16    16    17    1
    17    16    18   ar
    18    10     1    1
    19     1     2    1
    20     2     3    1
    21     3     4    1
    22     4    28    1
    23    28    29    1
    24    29    30    1
    25    30    47    1
    26    47    48   ar
    27    48    49   ar
    28    49    50   ar
    29    50    51   ar
    30    51    52    1
    31    51    53   ar
    32    30    31    1
    33    31    32    1
    34    32    33    1
    35    33    34   am
    36    34    35    2
    37    34    38    1
    38    38    39   ar
    39    39    40   ar
    40    40    41   ar
    41    41    42    1
    42    41    43   ar
    43    43    44   ar
    44    44    45    1
    45    33    36    1
    46    36    37    1
    47     4     5    1
    48     5     6    1
    49    23    24   ar
    50    24    25   ar
    51    25    20   ar
    52    18    12   ar
    53     6     1    1
    54    37    30    1
    55    53    47   ar
    56    44    38   ar
    57     7    11    1
    58    45    46    1
@<TRIPOS>MOLECULE
*****
 53 58 0 0 0
SMALL
GASTEIGER

@<TRIPOS>ATOM
      1 C         140.4934  141.6101  160.3408 C.3     1  UNL1        0.0840
      2 C         139.9797  141.0395  159.0522 C.3     1  UNL1        0.0376
      3 C         139.8199  141.9239  157.8512 C.3     1  UNL1        0.0738
      4 N         140.1740  143.3788  157.9388 N.3     1  UNL1       -0.2726
      5 C         140.6877  143.9495  159.2274 C.3     1  UNL1        0.0738
      6 C         140.8475  143.0651  160.4284 C.3     1  UNL1        0.0376
      7 N         139.7932  139.8785  163.8424 N.am    1  UNL1       -0.2844
      8 C         139.6335  140.7629  162.6414 C.2     1  UNL1        0.3079
      9 O         138.4543  141.6843  162.5400 O.2     1  UNL1       -0.2522
     10 N         140.6531  140.7257  161.5418 N.am    1  UNL1       -0.2448
     11 H         140.5672  139.2737  163.9090 H       1  UNL1        0.1513
     12 C         141.8323  139.8043  161.6432 C.ar    1  UNL1        0.0574
     13 C         141.9048  138.5810  160.7782 C.ar    1  UNL1        0.0151
     14 C         143.0841  137.6595  160.8797 C.ar    1  UNL1        0.0036
     15 C         144.1909  137.9614  161.8460 C.ar    1  UNL1        0.0297
     16 C         144.1184  139.1848  162.7110 C.ar    1  UNL1        0.1414
     17 F         145.2251  139.4867  163.6773 F       1  UNL1       -0.2041
     18 C         142.9392  140.1062  162.6096 C.ar    1  UNL1        0.0446
     19 C         138.7737  139.9156  164.9420 C.3     1  UNL1        0.1177
     20 C         139.9753  141.2072  169.0818 C.ar    1  UNL1        0.0684
     21 C         140.3501  142.0460  167.8961 C.ar    1  UNL1        0.0100
     22 C         139.9495  141.6154  166.5161 C.ar    1  UNL1       -0.0019
     23 C         139.1742  140.3461  166.3220 C.ar    1  UNL1       -0.0025
     24 C         138.7994  139.5074  167.5077 C.ar    1  UNL1       -0.0019
     25 C         139.2000  139.9380  168.8876 C.ar    1  UNL1        0.0100
     26 N         140.7763  142.0683  171.8417 N.1     1  UNL1       -0.1908
     27 C         140.3758  141.6378  170.4617 C.1     1  UNL1        0.1004
     28 C         140.0143  144.2632  156.7378 C.3     1  UNL1        0.0724
     29 C         138.6563  144.7750  156.3585 C.3     1  UNL1        0.0215
     30 C         137.9896  144.2788  155.1098 C.3     1  UNL1        0.0236
     31 C         137.1859  143.5461  156.1429 C.3     1  UNL1        0.0257
     32 C         136.0751  142.6316  155.7191 C.3     1  UNL1        0.0940
     33 N         135.7679  142.4496  154.2623 N.am    1  UNL1       -0.2760
     34 C         134.6570  141.5351  153.8385 C.2     1  UNL1        0.2520
     35 O         134.3499  141.3532  152.3816 O.2     1  UNL1       -0.2698
     36 C         136.5715  143.1823  153.2292 C.3     1  UNL1        0.0940
     37 C         137.6824  144.0969  153.6530 C.3     1  UNL1        0.0257
     38 C         133.8533  140.8024  154.8716 C.ar    1  UNL1        0.0873
     39 C         132.5446  141.3649  155.3413 C.ar    1  UNL1        0.0099
     40 C         131.7409  140.6322  156.3744 C.ar    1  UNL1        0.0300
     41 C         132.2461  139.3371  156.9379 C.ar    1  UNL1        0.1432
     42 F         131.4425  138.6044  157.9710 F       1  UNL1       -0.2041
     43 C         133.5549  138.7746  156.4682 C.ar    1  UNL1        0.0664
     44 C         134.3586  139.5073  155.4351 C.ar    1  UNL1        0.1402
     45 O         135.6674  138.9449  154.9654 O.3     1  UNL1       -0.5053
     46 H         135.9830  138.1359  155.3173 H       1  UNL1        0.2922
     47 C         139.0248  145.1838  154.5104 C.ar    1  UNL1       -0.0204
     48 C         140.0532  144.6279  153.5705 C.ar    1  UNL1       -0.0041
     49 C         141.0884  145.5329  152.9710 C.ar    1  UNL1        0.0020
     50 C         141.0952  146.9937  153.3115 C.ar    1  UNL1        0.0296
     51 C         140.0668  147.5496  154.2515 C.ar    1  UNL1        0.1398
     52 F         140.0737  149.0104  154.5919 F       1  UNL1       -0.2042
     53 C         139.0316  146.6446  154.8509 C.ar    1  UNL1        0.0254
@<TRIPOS>BOND
     1    26    27    3
     2    27    20    1
     3    20    21   ar
     4    21    22   ar
     5    22    23   ar
     6    23    19    1
     7    19     7    1
     8     7     8   am
     9     8     9    2
    10     8    10   am
    11    10    12    1
    12    12    13   ar
    13    13    14   ar
    14    14    15   ar
    15    15    16   ar
    16    16    17    1
    17    16    18   ar
    18    10     1    1
    19     1     2    1
    20     2     3    1
    21     3     4    1
    22     4    28    1
    23    28    29    1
    24    29    30    1
    25    30    47    1
    26    47    48   ar
    27    48    49   ar
    28    49    50   ar
    29    50    51   ar
    30    51    52    1
    31    51    53   ar
    32    30    31    1
    33    31    32    1
    34    32    33    1
    35    33    34   am
    36    34    35    2
    37    34    38    1
    38    38    39   ar
    39    39    40   ar
    40    40    41   ar
    41    41    42    1
    42    41    43   ar
    43    43    44   ar
    44    44    45    1
    45    33    36    1
    46    36    37    1
    47     4     5    1
    48     5     6    1
    49    23    24   ar
    50    24    25   ar
    51    25    20   ar
    52    18    12   ar
    53     6     1    1
    54    37    30    1
    55    53    47   ar
    56    44    38   ar
    57     7    11    1
    58    45    46    1
@<TRIPOS>MOLECULE
*****
 53 58 0 0 0
SMALL
GASTEIGER

@<TRIPOS>ATOM
      1 C         141.1490  139.9362  157.4939 C.3     1  UNL1        0.0840
      2 C         141.3404  139.4921  158.9138 C.3     1  UNL1        0.0376
      3 C         140.5680  140.1529  160.0169 C.3     1  UNL1        0.0738
      4 N         139.6042  141.2577  159.7001 N.3     1  UNL1       -0.2726
      5 C         139.4128  141.7019  158.2801 C.3     1  UNL1        0.0738
      6 C         140.1852  141.0411  157.1770 C.3     1  UNL1        0.0376
      7 N         142.2886  137.2558  154.7981 N.am    1  UNL1       -0.2844
      8 C         141.5162  137.9166  155.9012 C.2     1  UNL1        0.3079
      9 O         140.3388  137.2186  156.5148 O.2     1  UNL1       -0.2522
     10 N         141.9213  139.2754  156.3908 N.am    1  UNL1       -0.2448
     11 H         143.0614  137.7139  154.3955 H       1  UNL1        0.1513
     12 C         143.0988  139.9734  155.7773 C.ar    1  UNL1        0.0574
     13 C         144.4043  140.0302  156.5137 C.ar    1  UNL1        0.0151
     14 C         145.5818  140.7282  155.9001 C.ar    1  UNL1        0.0036
     15 C         145.4536  141.3693  154.5501 C.ar    1  UNL1        0.0297
     16 C         144.1481  141.3126  153.8137 C.ar    1  UNL1        0.1414
     17 F         144.0200  141.9537  152.4637 F       1  UNL1       -0.2041
     18 C         142.9707  140.6146  154.4272 C.ar    1  UNL1        0.0446
     19 C         141.8835  135.8971  154.3086 C.3     1  UNL1        0.1177
     20 C         143.1303  132.2212  156.5853 C.ar    1  UNL1        0.0684
     21 C         141.8791  132.2027  155.7583 C.ar    1  UNL1        0.0100
     22 C         141.4635  133.4280  154.9994 C.ar    1  UNL1       -0.0019
     23 C         142.2991  134.6718  155.0675 C.ar    1  UNL1       -0.0025
     24 C         143.5504  134.6902  155.8945 C.ar    1  UNL1       -0.0019
     25 C         143.9660  133.4649  156.6534 C.ar    1  UNL1        0.0100
     26 N         143.9615  129.7706  158.1031 N.1     1  UNL1       -0.1908
     27 C         143.5459  130.9959  157.3442 C.1     1  UNL1        0.1004
     28 C         138.8318  141.9185  160.8032 C.3     1  UNL1        0.0724
     29 C         139.2952  143.2316  161.3608 C.3     1  UNL1        0.0215
     30 C         140.5875  143.3107  162.1182 C.3     1  UNL1        0.0236
     31 C         139.6926  142.7570  163.1871 C.3     1  UNL1        0.0257
     32 C         140.2450  142.4651  164.5508 C.3     1  UNL1        0.0940
     33 N         141.6922  142.7270  164.8456 N.am    1  UNL1       -0.2760
     34 C         142.2447  142.4351  166.2094 C.2     1  UNL1        0.2520
     35 O         143.6919  142.6970  166.5040 O.2     1  UNL1       -0.2698
     36 C         142.5871  143.2807  163.7767 C.3     1  UNL1        0.0940
     37 C         142.0347  143.5726  162.4130 C.3     1  UNL1        0.0257
     38 C         141.3498  141.8814  167.2783 C.ar    1  UNL1        0.0873
     39 C         140.8379  142.7778  168.3665 C.ar    1  UNL1        0.0099
     40 C         139.9430  142.2241  169.4354 C.ar    1  UNL1        0.0300
     41 C         139.5600  140.7739  169.4160 C.ar    1  UNL1        0.1432
     42 F         138.6652  140.2201  170.4849 F       1  UNL1       -0.2041
     43 C         140.0719  139.8775  168.3277 C.ar    1  UNL1        0.0664
     44 C         140.9668  140.4312  167.2588 C.ar    1  UNL1        0.1402
     45 O         141.4787  139.5349  166.1705 O.3     1  UNL1       -0.5053
     46 H         141.2395  138.6290  166.1583 H       1  UNL1        0.2922
     47 C         141.0335  143.8370  160.7862 C.ar    1  UNL1       -0.0204
     48 C         142.2735  143.2921  160.1415 C.ar    1  UNL1       -0.0041
     49 C         142.7195  143.8183  158.8096 C.ar    1  UNL1        0.0020
     50 C         141.9256  144.8894  158.1223 C.ar    1  UNL1        0.0296
     51 C         140.6856  145.4343  158.7670 C.ar    1  UNL1        0.1398
     52 F         139.8917  146.5055  158.0797 F       1  UNL1       -0.2042
     53 C         140.2396  144.9081  160.0990 C.ar    1  UNL1        0.0254
@<TRIPOS>BOND
     1    26    27    3
     2    27    20    1
     3    20    21   ar
     4    21    22   ar
     5    22    23   ar
     6    23    19    1
     7    19     7    1
     8     7     8   am
     9     8     9    2
    10     8    10   am
    11    10    12    1
    12    12    13   ar
    13    13    14   ar
    14    14    15   ar
    15    15    16   ar
    16    16    17    1
    17    16    18   ar
    18    10     1    1
    19     1     2    1
    20     2     3    1
    21     3     4    1
    22     4    28    1
    23    28    29    1
    24    29    30    1
    25    30    47    1
    26    47    48   ar
    27    48    49   ar
    28    49    50   ar
    29    50    51   ar
    30    51    52    1
    31    51    53   ar
    32    30    31    1
    33    31    32    1
    34    32    33    1
    35    33    34   am
    36    34    35    2
    37    34    38    1
    38    38    39   ar
    39    39    40   ar
    40    40    41   ar
    41    41    42    1
    42    41    43   ar
    43    43    44   ar
    44    44    45    1
    45    33    36    1
    46    36    37    1
    47     4     5    1
    48     5     6    1
    49    23    24   ar
    50    24    25   ar
    51    25    20   ar
    52    18    12   ar
    53     6     1    1
    54    37    30    1
    55    53    47   ar
    56    44    38   ar
    57     7    11    1
    58    45    46    1
