@<TRIPOS>MOLECULE
*****
 31 34 0 0 0
SMALL
GASTEIGER

@<TRIPOS>ATOM
      1 C         142.6303  138.0929  161.7341 C.ar    1  UNL1       -0.0110
      2 C         143.7454  138.9618  162.2355 C.ar    1  UNL1       -0.0033
      3 C         143.9136  139.1904  163.7084 C.ar    1  UNL1        0.0042
      4 C         142.9668  138.5502  164.6798 C.ar    1  UNL1        0.0533
      5 C         141.8517  137.6813  164.1783 C.ar    1  UNL1        0.0042
      6 C         141.6834  137.4526  162.7055 C.ar    1  UNL1       -0.0033
      7 C         143.1351  138.7789  166.1527 C.2     1  UNL1        0.2461
      8 O         144.0485  137.8951  166.9494 O.2     1  UNL1       -0.2701
      9 N         142.3901  139.8914  166.8289 N.am    1  UNL1       -0.2969
     10 H         141.7906  140.4715  166.3060 H       1  UNL1        0.1501
     11 C         142.5584  140.1201  168.3018 C.3     1  UNL1        0.1166
     12 C         141.7170  141.1452  169.0026 C.ar    1  UNL1       -0.0026
     13 C         141.2199  142.3464  168.2542 C.ar    1  UNL1       -0.0026
     14 C         140.3785  143.3715  168.9549 C.ar    1  UNL1       -0.0003
     15 C         140.0341  143.1954  170.4043 C.ar    1  UNL1       -0.0000
     16 C         140.5312  141.9943  171.1527 C.ar    1  UNL1       -0.0003
     17 C         141.3726  140.9692  170.4519 C.ar    1  UNL1       -0.0026
     18 C         142.4619  137.8641  160.2612 C.3     1  UNL1        0.0884
     19 S         141.2739  138.4343  159.5446 S.3     1  UNL1       -0.1088
     20 N         137.4423  144.4235  162.8719 N.pl3   1  UNL1       -0.3375
     21 C         137.9598  143.1191  162.3420 C.ar    1  UNL1        0.1567
     22 N         137.3145  141.7768  162.5203 N.ar    1  UNL1       -0.2245
     23 C         138.1692  140.7560  161.8293 C.ar    1  UNL1        0.0893
     24 C         138.0305  139.2707  161.6731 C.ar    1  UNL1        0.0202
     25 C         139.0654  138.4968  160.9116 C.ar    1  UNL1        0.0077
     26 C         140.2390  139.2083  160.3062 C.ar    1  UNL1        0.0261
     27 C         140.3777  140.6936  160.4624 C.ar    1  UNL1        0.0142
     28 C         139.3428  141.4675  161.2239 C.ar    1  UNL1        0.0502
     29 S         139.2133  142.9279  161.5408 S.2     1  UNL1       -0.0520
     30 H         136.6054  144.4472  163.3899 H       1  UNL1        0.1442
     31 H         137.9396  145.2560  162.7017 H       1  UNL1        0.1442
@<TRIPOS>BOND
     1    20    21    1
     2    21    22   ar
     3    22    23   ar
     4    23    24   ar
     5    24    25   ar
     6    25    26   ar
     7    26    19    1
     8    19    18    1
     9    18     1    1
    10     1     2   ar
    11     2     3   ar
    12     3     4   ar
    13     4     7    1
    14     7     8    2
    15     7     9   am
    16     9    11    1
    17    11    12    1
    18    12    13   ar
    19    13    14   ar
    20    14    15   ar
    21    15    16   ar
    22    16    17   ar
    23     4     5   ar
    24     5     6   ar
    25    26    27   ar
    26    27    28   ar
    27    28    29   ar
    28    29    21   ar
    29    28    23   ar
    30     6     1   ar
    31    17    12   ar
    32    20    30    1
    33    20    31    1
    34     9    10    1
@<TRIPOS>MOLECULE
*****
 31 34 0 0 0
SMALL
GASTEIGER

@<TRIPOS>ATOM
      1 C         138.5024  138.8221  162.1303 C.ar    1  UNL1       -0.0110
      2 C         138.1275  140.1162  162.7897 C.ar    1  UNL1       -0.0033
      3 C         138.0986  140.2145  164.2862 C.ar    1  UNL1        0.0042
      4 C         138.4446  139.0188  165.1232 C.ar    1  UNL1        0.0533
      5 C         138.8195  137.7248  164.4637 C.ar    1  UNL1        0.0042
      6 C         138.8484  137.6264  162.9673 C.ar    1  UNL1       -0.0033
      7 C         138.4156  139.1172  166.6197 C.2     1  UNL1        0.2461
      8 O         137.4840  138.2474  167.4106 O.2     1  UNL1       -0.2701
      9 N         139.3183  140.0853  167.3253 N.am    1  UNL1       -0.2969
     10 H         139.9298  140.6562  166.8062 H       1  UNL1        0.1501
     11 C         139.2894  140.1836  168.8217 C.3     1  UNL1        0.1166
     12 C         140.3035  141.0256  169.5378 C.ar    1  UNL1       -0.0026
     13 C         141.2035  140.4044  170.5646 C.ar    1  UNL1       -0.0026
     14 C         142.2176  141.2463  171.2807 C.ar    1  UNL1       -0.0003
     15 C         142.3318  142.7094  170.9700 C.ar    1  UNL1       -0.0000
     16 C         141.4318  143.3305  169.9432 C.ar    1  UNL1       -0.0003
     17 C         140.4177  142.4886  169.2271 C.ar    1  UNL1       -0.0026
     18 C         138.5313  138.7238  160.6337 C.3     1  UNL1        0.0884
     19 S         139.8195  138.9298  159.8933 S.3     1  UNL1       -0.1088
     20 N         145.9795  142.1482  163.5429 N.pl3   1  UNL1       -0.3375
     21 C         144.9264  141.2832  162.9162 C.ar    1  UNL1        0.1567
     22 N         144.9144  139.7833  162.8962 N.ar    1  UNL1       -0.2245
     23 C         143.6810  139.3393  162.1672 C.ar    1  UNL1        0.0893
     24 C         143.1442  137.9774  161.8398 C.ar    1  UNL1        0.0202
     25 C         141.8571  137.8410  161.0819 C.ar    1  UNL1        0.0077
     26 C         141.1067  139.0663  160.6513 C.ar    1  UNL1        0.0261
     27 C         141.6435  140.4282  160.9787 C.ar    1  UNL1        0.0142
     28 C         142.9306  140.5646  161.7366 C.ar    1  UNL1        0.0502
     29 S         143.7003  141.7660  162.1996 S.2     1  UNL1       -0.0520
     30 H         146.7516  141.7356  163.9932 H       1  UNL1        0.1442
     31 H         145.8986  143.1286  163.5038 H       1  UNL1        0.1442
@<TRIPOS>BOND
     1    20    21    1
     2    21    22   ar
     3    22    23   ar
     4    23    24   ar
     5    24    25   ar
     6    25    26   ar
     7    26    19    1
     8    19    18    1
     9    18     1    1
    10     1     2   ar
    11     2     3   ar
    12     3     4   ar
    13     4     7    1
    14     7     8    2
    15     7     9   am
    16     9    11    1
    17    11    12    1
    18    12    13   ar
    19    13    14   ar
    20    14    15   ar
    21    15    16   ar
    22    16    17   ar
    23     4     5   ar
    24     5     6   ar
    25    26    27   ar
    26    27    28   ar
    27    28    29   ar
    28    29    21   ar
    29    28    23   ar
    30     6     1   ar
    31    17    12   ar
    32    20    30    1
    33    20    31    1
    34     9    10    1
@<TRIPOS>MOLECULE
*****
 31 34 0 0 0
SMALL
GASTEIGER

@<TRIPOS>ATOM
      1 C         139.0545  138.5373  161.7585 C.ar    1  UNL1       -0.0110
      2 C         138.1980  139.6520  162.2817 C.ar    1  UNL1       -0.0033
      3 C         137.9996  139.8151  163.7595 C.ar    1  UNL1        0.0042
      4 C         138.6577  138.8636  164.7141 C.ar    1  UNL1        0.0533
      5 C         139.5142  137.7489  164.1910 C.ar    1  UNL1        0.0042
      6 C         139.7127  137.5858  162.7132 C.ar    1  UNL1       -0.0033
      7 C         138.4592  139.0267  166.1920 C.2     1  UNL1        0.2461
      8 O         137.3069  138.3499  166.8732 O.2     1  UNL1       -0.2701
      9 N         139.4131  139.8666  166.9886 N.am    1  UNL1       -0.2969
     10 H         140.1694  140.3109  166.5416 H       1  UNL1        0.1501
     11 C         139.2146  140.0298  168.4664 C.3     1  UNL1        0.1166
     12 C         140.2001  140.8229  169.2726 C.ar    1  UNL1       -0.0026
     13 C         140.4202  142.2755  168.9699 C.ar    1  UNL1       -0.0026
     14 C         141.4056  143.0686  169.7759 C.ar    1  UNL1       -0.0003
     15 C         142.1711  142.4092  170.8847 C.ar    1  UNL1       -0.0000
     16 C         141.9510  140.9566  171.1874 C.ar    1  UNL1       -0.0003
     17 C         140.9655  140.1635  170.3813 C.ar    1  UNL1       -0.0026
     18 C         139.2530  138.3742  160.2806 C.3     1  UNL1        0.0884
     19 S         139.9750  139.4318  159.4996 S.3     1  UNL1       -0.1088
     20 N         143.9168  145.3405  162.8423 N.pl3   1  UNL1       -0.3375
     21 C         143.4091  144.0649  162.2380 C.ar    1  UNL1        0.1567
     22 N         144.1896  142.7943  162.0756 N.ar    1  UNL1       -0.2245
     23 C         143.2946  141.7801  161.4272 C.ar    1  UNL1        0.0893
     24 C         143.5218  140.3536  161.0231 C.ar    1  UNL1        0.0202
     25 C         142.4153  139.5708  160.3806 C.ar    1  UNL1        0.0077
     26 C         141.0816  140.2146  160.1422 C.ar    1  UNL1        0.0261
     27 C         140.8544  141.6411  160.5463 C.ar    1  UNL1        0.0142
     28 C         141.9609  142.4239  161.1888 C.ar    1  UNL1        0.0502
     29 S         142.0317  143.8360  161.6899 S.2     1  UNL1       -0.0520
     30 H         144.8414  145.3932  163.1761 H       1  UNL1        0.1442
     31 H         143.3253  146.1250  162.9051 H       1  UNL1        0.1442
@<TRIPOS>BOND
     1    20    21    1
     2    21    22   ar
     3    22    23   ar
     4    23    24   ar
     5    24    25   ar
     6    25    26   ar
     7    26    19    1
     8    19    18    1
     9    18     1    1
    10     1     2   ar
    11     2     3   ar
    12     3     4   ar
    13     4     7    1
    14     7     8    2
    15     7     9   am
    16     9    11    1
    17    11    12    1
    18    12    13   ar
    19    13    14   ar
    20    14    15   ar
    21    15    16   ar
    22    16    17   ar
    23     4     5   ar
    24     5     6   ar
    25    26    27   ar
    26    27    28   ar
    27    28    29   ar
    28    29    21   ar
    29    28    23   ar
    30     6     1   ar
    31    17    12   ar
    32    20    30    1
    33    20    31    1
    34     9    10    1
@<TRIPOS>MOLECULE
*****
 31 34 0 0 0
SMALL
GASTEIGER

@<TRIPOS>ATOM
      1 C         139.6153  137.8301  164.3348 C.ar    1  UNL1       -0.0110
      2 C         141.1032  137.8018  164.5224 C.ar    1  UNL1       -0.0033
      3 C         142.0103  137.8300  163.3282 C.ar    1  UNL1        0.0042
      4 C         141.4295  137.8865  161.9463 C.ar    1  UNL1        0.0533
      5 C         139.9416  137.9147  161.7587 C.ar    1  UNL1        0.0042
      6 C         139.0345  137.8865  162.9530 C.ar    1  UNL1       -0.0033
      7 C         142.3367  137.9147  160.7521 C.2     1  UNL1        0.2461
      8 O         143.8229  137.8295  160.9370 O.2     1  UNL1       -0.2701
      9 N         141.7578  138.0280  159.3730 N.am    1  UNL1       -0.2969
     10 H         140.7824  138.0839  159.2516 H       1  UNL1        0.1501
     11 C         142.6650  138.0562  158.1788 C.3     1  UNL1        0.1166
     12 C         142.3724  137.1842  156.9938 C.ar    1  UNL1       -0.0026
     13 C         143.4885  136.4583  156.3030 C.ar    1  UNL1       -0.0026
     14 C         143.1959  135.5864  155.1180 C.ar    1  UNL1       -0.0003
     15 C         141.7872  135.4404  154.6238 C.ar    1  UNL1       -0.0000
     16 C         140.6710  136.1663  155.3147 C.ar    1  UNL1       -0.0003
     17 C         140.9637  137.0383  156.4997 C.ar    1  UNL1       -0.0026
     18 C         138.7081  137.8019  165.5291 C.3     1  UNL1        0.0884
     19 S         138.1048  139.0754  166.0430 S.3     1  UNL1       -0.1088
     20 N         138.9340  145.7145  161.9370 N.pl3   1  UNL1       -0.3375
     21 C         139.0031  144.5418  162.8698 C.ar    1  UNL1        0.1567
     22 N         140.0017  144.3499  163.9725 N.ar    1  UNL1       -0.2245
     23 C         139.7015  143.0446  164.6478 C.ar    1  UNL1        0.0893
     24 C         140.3534  142.3365  165.7983 C.ar    1  UNL1        0.0202
     25 C         139.8211  141.0135  166.2633 C.ar    1  UNL1        0.0077
     26 C         138.6370  140.3985  165.5779 C.ar    1  UNL1        0.0261
     27 C         137.9852  141.1066  164.4274 C.ar    1  UNL1        0.0142
     28 C         138.5174  142.4297  163.9624 C.ar    1  UNL1        0.0502
     29 S         138.0858  143.3550  162.8635 S.2     1  UNL1       -0.0520
     30 H         139.5844  146.4488  162.0205 H       1  UNL1        0.1442
     31 H         138.2383  145.7498  161.2413 H       1  UNL1        0.1442
@<TRIPOS>BOND
     1    20    21    1
     2    21    22   ar
     3    22    23   ar
     4    23    24   ar
     5    24    25   ar
     6    25    26   ar
     7    26    19    1
     8    19    18    1
     9    18     1    1
    10     1     2   ar
    11     2     3   ar
    12     3     4   ar
    13     4     7    1
    14     7     8    2
    15     7     9   am
    16     9    11    1
    17    11    12    1
    18    12    13   ar
    19    13    14   ar
    20    14    15   ar
    21    15    16   ar
    22    16    17   ar
    23     4     5   ar
    24     5     6   ar
    25    26    27   ar
    26    27    28   ar
    27    28    29   ar
    28    29    21   ar
    29    28    23   ar
    30     6     1   ar
    31    17    12   ar
    32    20    30    1
    33    20    31    1
    34     9    10    1
@<TRIPOS>MOLECULE
*****
 31 34 0 0 0
SMALL
GASTEIGER

@<TRIPOS>ATOM
      1 C         142.6919  138.1085  161.6672 C.ar    1  UNL1       -0.0110
      2 C         143.9315  138.7660  162.1973 C.ar    1  UNL1       -0.0033
      3 C         144.0948  138.9791  163.6730 C.ar    1  UNL1        0.0042
      4 C         143.0186  138.5348  164.6186 C.ar    1  UNL1        0.0533
      5 C         141.7790  137.8772  164.0885 C.ar    1  UNL1        0.0042
      6 C         141.6157  137.6641  162.6128 C.ar    1  UNL1       -0.0033
      7 C         143.1820  138.7479  166.0945 C.2     1  UNL1        0.2461
      8 O         144.0835  137.8483  166.8869 O.2     1  UNL1       -0.2701
      9 N         142.4438  139.8607  166.7778 N.am    1  UNL1       -0.2969
     10 H         141.8521  140.4511  166.2577 H       1  UNL1        0.1501
     11 C         142.6072  140.0738  168.2535 C.3     1  UNL1        0.1166
     12 C         141.7108  141.0351  168.9763 C.ar    1  UNL1       -0.0026
     13 C         140.3715  140.5808  169.4760 C.ar    1  UNL1       -0.0026
     14 C         139.4751  141.5420  170.1987 C.ar    1  UNL1       -0.0003
     15 C         139.9180  142.9577  170.4218 C.ar    1  UNL1       -0.0000
     16 C         141.2573  143.4121  169.9220 C.ar    1  UNL1       -0.0003
     17 C         142.1537  142.4507  169.1993 C.ar    1  UNL1       -0.0026
     18 C         142.5286  137.8953  160.1914 C.3     1  UNL1        0.0884
     19 S         141.9190  138.9703  159.3412 S.3     1  UNL1       -0.1088
     20 N         140.4946  146.0902  162.3249 N.pl3   1  UNL1       -0.3375
     21 C         141.0157  144.8461  161.6687 C.ar    1  UNL1        0.1567
     22 N         142.3352  144.7045  160.9695 N.ar    1  UNL1       -0.2245
     23 C         142.4438  143.2960  160.4651 C.ar    1  UNL1        0.0893
     24 C         143.5213  142.5831  159.7030 C.ar    1  UNL1        0.0202
     25 C         143.3464  141.1412  159.3284 C.ar    1  UNL1        0.0077
     26 C         142.0939  140.4123  159.7159 C.ar    1  UNL1        0.0261
     27 C         141.0165  141.1252  160.4779 C.ar    1  UNL1        0.0142
     28 C         141.1914  142.5671  160.8525 C.ar    1  UNL1        0.0502
     29 S         140.3088  143.5251  161.5964 S.2     1  UNL1       -0.0520
     30 H         141.0355  146.9128  162.3201 H       1  UNL1        0.1442
     31 H         139.6118  146.0841  162.7605 H       1  UNL1        0.1442
@<TRIPOS>BOND
     1    20    21    1
     2    21    22   ar
     3    22    23   ar
     4    23    24   ar
     5    24    25   ar
     6    25    26   ar
     7    26    19    1
     8    19    18    1
     9    18     1    1
    10     1     2   ar
    11     2     3   ar
    12     3     4   ar
    13     4     7    1
    14     7     8    2
    15     7     9   am
    16     9    11    1
    17    11    12    1
    18    12    13   ar
    19    13    14   ar
    20    14    15   ar
    21    15    16   ar
    22    16    17   ar
    23     4     5   ar
    24     5     6   ar
    25    26    27   ar
    26    27    28   ar
    27    28    29   ar
    28    29    21   ar
    29    28    23   ar
    30     6     1   ar
    31    17    12   ar
    32    20    30    1
    33    20    31    1
    34     9    10    1
@<TRIPOS>MOLECULE
*****
 31 34 0 0 0
SMALL
GASTEIGER

@<TRIPOS>ATOM
      1 C         143.0431  138.6458  164.5161 C.ar    1  UNL1       -0.0110
      2 C         142.0685  137.8563  163.6935 C.ar    1  UNL1       -0.0033
      3 C         142.1681  137.8678  162.1969 C.ar    1  UNL1        0.0042
      4 C         143.2425  138.6687  161.5229 C.ar    1  UNL1        0.0533
      5 C         144.2171  139.4581  162.3455 C.ar    1  UNL1        0.0042
      6 C         144.1175  139.4467  163.8421 C.ar    1  UNL1       -0.0033
      7 C         143.3421  138.6801  160.0262 C.2     1  UNL1        0.2461
      8 O         144.0483  139.8056  159.3301 O.2     1  UNL1       -0.2701
      9 N         142.7355  137.5661  159.2256 N.am    1  UNL1       -0.2969
     10 H         142.2720  136.8274  159.6825 H       1  UNL1        0.1501
     11 C         142.8351  137.5776  157.7290 C.3     1  UNL1        0.1166
     12 C         142.4567  136.3574  156.9427 C.ar    1  UNL1       -0.0026
     13 C         143.1826  135.0644  157.1690 C.ar    1  UNL1       -0.0026
     14 C         142.8042  133.8444  156.3828 C.ar    1  UNL1       -0.0003
     15 C         141.6999  133.9172  155.3703 C.ar    1  UNL1       -0.0000
     16 C         140.9740  135.2102  155.1440 C.ar    1  UNL1       -0.0003
     17 C         141.3524  136.4304  155.9302 C.ar    1  UNL1       -0.0026
     18 C         142.9435  138.6343  166.0128 C.3     1  UNL1        0.0884
     19 S         142.0470  139.6126  166.7123 S.3     1  UNL1       -0.1088
     20 N         137.5886  144.5097  162.4976 N.pl3   1  UNL1       -0.3375
     21 C         138.2031  143.4115  163.3139 C.ar    1  UNL1        0.1567
     22 N         137.5109  142.1637  163.7763 N.ar    1  UNL1       -0.2245
     23 C         138.4976  141.3492  164.5593 C.ar    1  UNL1        0.0893
     24 C         138.3787  140.0259  165.2555 C.ar    1  UNL1        0.0202
     25 C         139.5618  139.4471  165.9731 C.ar    1  UNL1        0.0077
     26 C         140.8639  140.1915  165.9946 C.ar    1  UNL1        0.0261
     27 C         140.9828  141.5148  165.2984 C.ar    1  UNL1        0.0142
     28 C         139.7996  142.0936  164.5808 C.ar    1  UNL1        0.0502
     29 S         139.6176  143.3682  163.8111 S.2     1  UNL1       -0.0520
     30 H         136.6469  144.4470  162.2175 H       1  UNL1        0.1442
     31 H         138.1271  145.2933  162.2419 H       1  UNL1        0.1442
@<TRIPOS>BOND
     1    20    21    1
     2    21    22   ar
     3    22    23   ar
     4    23    24   ar
     5    24    25   ar
     6    25    26   ar
     7    26    19    1
     8    19    18    1
     9    18     1    1
    10     1     2   ar
    11     2     3   ar
    12     3     4   ar
    13     4     7    1
    14     7     8    2
    15     7     9   am
    16     9    11    1
    17    11    12    1
    18    12    13   ar
    19    13    14   ar
    20    14    15   ar
    21    15    16   ar
    22    16    17   ar
    23     4     5   ar
    24     5     6   ar
    25    26    27   ar
    26    27    28   ar
    27    28    29   ar
    28    29    21   ar
    29    28    23   ar
    30     6     1   ar
    31    17    12   ar
    32    20    30    1
    33    20    31    1
    34     9    10    1
@<TRIPOS>MOLECULE
*****
 31 34 0 0 0
SMALL
GASTEIGER

@<TRIPOS>ATOM
      1 C         139.8188  138.0330  164.1746 C.ar    1  UNL1       -0.0110
      2 C         141.3086  137.9328  164.3175 C.ar    1  UNL1       -0.0033
      3 C         142.1799  137.9208  163.0966 C.ar    1  UNL1        0.0042
      4 C         141.5615  138.0089  161.7329 C.ar    1  UNL1        0.0533
      5 C         140.0717  138.1091  161.5900 C.ar    1  UNL1        0.0042
      6 C         139.2004  138.1211  162.8109 C.ar    1  UNL1       -0.0033
      7 C         142.4329  137.9969  160.5120 C.2     1  UNL1        0.2461
      8 O         143.9162  138.1748  160.6474 O.2     1  UNL1       -0.2701
      9 N         141.8211  137.8070  159.1557 N.am    1  UNL1       -0.2969
     10 H         140.8476  137.6902  159.0668 H       1  UNL1        0.1501
     11 C         142.6925  137.7949  157.9349 C.3     1  UNL1        0.1166
     12 C         142.4590  136.7786  156.8566 C.ar    1  UNL1       -0.0026
     13 C         143.5826  135.8941  156.4035 C.ar    1  UNL1       -0.0026
     14 C         143.3491  134.8778  155.3253 C.ar    1  UNL1       -0.0003
     15 C         141.9919  134.7459  154.7002 C.ar    1  UNL1       -0.0000
     16 C         140.8683  135.6303  155.1533 C.ar    1  UNL1       -0.0003
     17 C         141.1019  136.6467  156.2315 C.ar    1  UNL1       -0.0026
     18 C         138.9474  138.0450  165.3955 C.3     1  UNL1        0.0884
     19 S         138.5747  139.3481  166.0382 S.3     1  UNL1       -0.1088
     20 N         144.3533  142.8124  170.0667 N.pl3   1  UNL1       -0.3375
     21 C         143.1322  142.1064  169.5564 C.ar    1  UNL1        0.1567
     22 N         142.0147  141.5600  170.3946 N.ar    1  UNL1       -0.2245
     23 C         141.0061  140.9387  169.4745 C.ar    1  UNL1        0.0893
     24 C         139.7015  140.2461  169.7360 C.ar    1  UNL1        0.0202
     25 C         138.8911  139.7159  168.5906 C.ar    1  UNL1        0.0077
     26 C         139.3852  139.8783  167.1836 C.ar    1  UNL1        0.0261
     27 C         140.6898  140.5709  166.9221 C.ar    1  UNL1        0.0142
     28 C         141.5002  141.1011  168.0676 C.ar    1  UNL1        0.0502
     29 S         142.8142  141.8228  168.1182 S.2     1  UNL1       -0.0520
     30 H         144.4732  142.9518  171.0339 H       1  UNL1        0.1442
     31 H         145.0349  143.1364  169.4345 H       1  UNL1        0.1442
@<TRIPOS>BOND
     1    20    21    1
     2    21    22   ar
     3    22    23   ar
     4    23    24   ar
     5    24    25   ar
     6    25    26   ar
     7    26    19    1
     8    19    18    1
     9    18     1    1
    10     1     2   ar
    11     2     3   ar
    12     3     4   ar
    13     4     7    1
    14     7     8    2
    15     7     9   am
    16     9    11    1
    17    11    12    1
    18    12    13   ar
    19    13    14   ar
    20    14    15   ar
    21    15    16   ar
    22    16    17   ar
    23     4     5   ar
    24     5     6   ar
    25    26    27   ar
    26    27    28   ar
    27    28    29   ar
    28    29    21   ar
    29    28    23   ar
    30     6     1   ar
    31    17    12   ar
    32    20    30    1
    33    20    31    1
    34     9    10    1
@<TRIPOS>MOLECULE
*****
 31 34 0 0 0
SMALL
GASTEIGER

@<TRIPOS>ATOM
      1 C         139.5011  137.8110  164.2389 C.ar    1  UNL1       -0.0110
      2 C         138.8465  137.8520  162.8900 C.ar    1  UNL1       -0.0033
      3 C         139.6872  137.9365  161.6506 C.ar    1  UNL1        0.0042
      4 C         141.1826  137.9799  161.7602 C.ar    1  UNL1        0.0533
      5 C         141.8372  137.9389  163.1092 C.ar    1  UNL1        0.0042
      6 C         140.9965  137.8545  164.3485 C.ar    1  UNL1       -0.0033
      7 C         142.0233  138.0643  160.5208 C.2     1  UNL1        0.2461
      8 O         143.1822  137.1302  160.3356 O.2     1  UNL1       -0.2701
      9 N         141.7051  139.0829  159.4666 N.am    1  UNL1       -0.2969
     10 H         140.9444  139.6960  159.5882 H       1  UNL1        0.1501
     11 C         142.5458  139.1673  158.2273 C.3     1  UNL1        0.1166
     12 C         143.5353  140.2832  158.0667 C.ar    1  UNL1       -0.0026
     13 C         144.3905  140.3560  156.8366 C.ar    1  UNL1       -0.0026
     14 C         145.3800  141.4718  156.6760 C.ar    1  UNL1       -0.0003
     15 C         145.5143  142.5149  157.7456 C.ar    1  UNL1       -0.0000
     16 C         144.6591  142.4420  158.9758 C.ar    1  UNL1       -0.0003
     17 C         143.6696  141.3261  159.1363 C.ar    1  UNL1       -0.0026
     18 C         138.6604  137.7266  165.4784 C.3     1  UNL1        0.0884
     19 S         138.2171  138.9811  166.1708 S.3     1  UNL1       -0.1088
     20 N         138.8297  145.5987  161.9928 N.pl3   1  UNL1       -0.3375
     21 C         138.9371  144.4390  162.9380 C.ar    1  UNL1        0.1567
     22 N         139.9419  144.2912  164.0418 N.ar    1  UNL1       -0.2245
     23 C         139.6843  142.9843  164.7314 C.ar    1  UNL1        0.0893
     24 C         140.3593  142.3100  165.8888 C.ar    1  UNL1        0.0202
     25 C         139.8703  140.9756  166.3686 C.ar    1  UNL1        0.0077
     26 C         138.7061  140.3156  165.6910 C.ar    1  UNL1        0.0261
     27 C         138.0311  140.9899  164.5336 C.ar    1  UNL1        0.0142
     28 C         138.5202  142.3242  164.0538 C.ar    1  UNL1        0.0502
     29 S         138.0584  143.2233  162.9454 S.2     1  UNL1       -0.0520
     30 H         139.4562  146.3545  162.0678 H       1  UNL1        0.1442
     31 H         138.1328  145.6041  161.2974 H       1  UNL1        0.1442
@<TRIPOS>BOND
     1    20    21    1
     2    21    22   ar
     3    22    23   ar
     4    23    24   ar
     5    24    25   ar
     6    25    26   ar
     7    26    19    1
     8    19    18    1
     9    18     1    1
    10     1     2   ar
    11     2     3   ar
    12     3     4   ar
    13     4     7    1
    14     7     8    2
    15     7     9   am
    16     9    11    1
    17    11    12    1
    18    12    13   ar
    19    13    14   ar
    20    14    15   ar
    21    15    16   ar
    22    16    17   ar
    23     4     5   ar
    24     5     6   ar
    25    26    27   ar
    26    27    28   ar
    27    28    29   ar
    28    29    21   ar
    29    28    23   ar
    30     6     1   ar
    31    17    12   ar
    32    20    30    1
    33    20    31    1
    34     9    10    1
@<TRIPOS>MOLECULE
*****
 31 34 0 0 0
SMALL
GASTEIGER

@<TRIPOS>ATOM
      1 C         144.2982  139.8533  162.4572 C.ar    1  UNL1       -0.0110
      2 C         144.2740  140.6405  161.1806 C.ar    1  UNL1       -0.0033
      3 C         143.6265  140.0643  159.9564 C.ar    1  UNL1        0.0042
      4 C         143.0031  138.7010  160.0088 C.ar    1  UNL1        0.0533
      5 C         143.0273  137.9138  161.2854 C.ar    1  UNL1        0.0042
      6 C         143.6748  138.4900  162.5096 C.ar    1  UNL1       -0.0033
      7 C         142.3556  138.1248  158.7845 C.2     1  UNL1        0.2461
      8 O         140.9162  138.4237  158.4862 O.2     1  UNL1       -0.2701
      9 N         143.1473  137.2498  157.8586 N.am    1  UNL1       -0.2969
     10 H         144.0920  137.0537  158.0543 H       1  UNL1        0.1501
     11 C         142.4998  136.6737  156.6344 C.3     1  UNL1        0.1166
     12 C         142.4492  135.1870  156.4418 C.ar    1  UNL1       -0.0026
     13 C         141.4984  134.5916  155.4460 C.ar    1  UNL1       -0.0026
     14 C         141.4478  133.1049  155.2534 C.ar    1  UNL1       -0.0003
     15 C         142.3480  132.2135  156.0567 C.ar    1  UNL1       -0.0000
     16 C         143.2987  132.8088  157.0525 C.ar    1  UNL1       -0.0003
     17 C         143.3493  134.2956  157.2450 C.ar    1  UNL1       -0.0026
     18 C         144.9457  140.4295  163.6815 C.3     1  UNL1        0.0884
     19 S         144.1049  141.0846  164.7368 S.3     1  UNL1       -0.1088
     20 N         137.4508  144.6630  162.6057 N.pl3   1  UNL1       -0.3375
     21 C         138.8336  144.2448  163.0096 C.ar    1  UNL1        0.1567
     22 N         140.0096  145.1560  163.2014 N.ar    1  UNL1       -0.2245
     23 C         141.1859  144.3163  163.6030 C.ar    1  UNL1        0.0893
     24 C         142.6079  144.6692  163.9246 C.ar    1  UNL1        0.0202
     25 C         143.5808  143.5920  164.3025 C.ar    1  UNL1        0.0077
     26 C         143.1318  142.1619  164.3588 C.ar    1  UNL1        0.0261
     27 C         141.7099  141.8090  164.0372 C.ar    1  UNL1        0.0142
     28 C         140.7369  142.8862  163.6593 C.ar    1  UNL1        0.0502
     29 S         139.2831  142.8420  163.2926 S.2     1  UNL1       -0.0520
     30 H         137.2523  145.6131  162.4412 H       1  UNL1        0.1442
     31 H         136.7418  143.9874  162.5052 H       1  UNL1        0.1442
@<TRIPOS>BOND
     1    20    21    1
     2    21    22   ar
     3    22    23   ar
     4    23    24   ar
     5    24    25   ar
     6    25    26   ar
     7    26    19    1
     8    19    18    1
     9    18     1    1
    10     1     2   ar
    11     2     3   ar
    12     3     4   ar
    13     4     7    1
    14     7     8    2
    15     7     9   am
    16     9    11    1
    17    11    12    1
    18    12    13   ar
    19    13    14   ar
    20    14    15   ar
    21    15    16   ar
    22    16    17   ar
    23     4     5   ar
    24     5     6   ar
    25    26    27   ar
    26    27    28   ar
    27    28    29   ar
    28    29    21   ar
    29    28    23   ar
    30     6     1   ar
    31    17    12   ar
    32    20    30    1
    33    20    31    1
    34     9    10    1
