@<TRIPOS>MOLECULE
*****
 33 37 0 0 0
SMALL
GASTEIGER

@<TRIPOS>ATOM
      1 N         142.1075  138.1991  158.5588 N.ar    1  UNL1       -0.2286
      2 C         141.1938  139.3748  158.3779 C.ar    1  UNL1        0.0990
      3 C         140.7160  139.8035  159.7336 C.ar    1  UNL1        0.0338
      4 C         141.3344  138.8927  160.7524 C.ar    1  UNL1        0.0981
      5 N         142.1944  137.9011  160.0264 N.ar    1  UNL1       -0.1680
      6 C         140.8566  139.3213  162.1081 C.3     1  UNL1        0.1414
      7 N         139.9428  140.4971  161.9272 N.am    1  UNL1       -0.2661
      8 C         139.2396  141.2437  163.0216 C.2     1  UNL1        0.2508
      9 O         138.3523  142.4059  162.6866 O.2     1  UNL1       -0.2698
     10 C         139.8560  140.7951  160.4596 C.3     1  UNL1        0.1236
     11 C         143.6636  133.7106  156.4537 C.3     1  UNL1        0.0521
     12 C         143.5889  135.2081  156.4118 C.ar    1  UNL1        0.0609
     13 C         142.8856  135.9549  157.5062 C.ar    1  UNL1        0.0339
     14 C         142.8108  137.4524  157.4644 C.ar    1  UNL1        0.0855
     15 C         143.4394  138.2033  156.3282 C.ar    1  UNL1        0.0398
     16 C         144.1427  137.4565  155.2337 C.ar    1  UNL1        0.1000
     17 N         144.2175  135.9589  155.2756 N.ar    1  UNL1       -0.2480
     18 C         139.4234  140.8283  164.4511 C.ar    1  UNL1        0.0676
     19 C         138.4411  139.8939  165.0929 C.ar    1  UNL1        0.0160
     20 C         138.6250  139.4784  166.5225 C.ar    1  UNL1        0.0687
     21 C         139.7911  139.9974  167.3103 C.ar    1  UNL1        0.0115
     22 C         140.7735  140.9319  166.6686 C.ar    1  UNL1        0.0154
     23 C         140.5896  141.3473  165.2390 C.ar    1  UNL1        0.0523
     24 N         141.5720  142.2818  164.5973 N.pl3   1  UNL1       -0.3070
     25 C         142.7870  141.7351  163.9082 C.3     1  UNL1        0.0964
     26 C         143.7693  142.6696  163.2664 C.3     1  UNL1        0.0880
     27 C         143.5366  144.1507  163.3138 C.3     1  UNL1        0.2672
     28 F         143.7518  145.6190  163.0954 F       1  UNL1       -0.2042
     29 F         144.8264  144.1140  162.5488 F       1  UNL1       -0.2042
     30 C         142.3216  144.6974  164.0028 C.3     1  UNL1        0.0880
     31 C         141.3392  143.7629  164.6446 C.3     1  UNL1        0.0964
     32 C         137.6426  138.5440  167.1642 C.1     1  UNL1        0.1004
     33 N         136.6603  137.6096  167.8059 N.1     1  UNL1       -0.1908
@<TRIPOS>BOND
     1    11    12    1
     2    12    13   ar
     3    13    14   ar
     4    14     1    1
     5     1     2   ar
     6     2     3   ar
     7     3     4   ar
     8     4     5   ar
     9     4     6    1
    10     6     7    1
    11     7     8   am
    12     8     9    2
    13     8    18    1
    14    18    19   ar
    15    19    20   ar
    16    20    32    1
    17    32    33    3
    18    20    21   ar
    19    21    22   ar
    20    22    23   ar
    21    23    24    1
    22    24    25    1
    23    25    26    1
    24    26    27    1
    25    27    28    1
    26    27    29    1
    27    27    30    1
    28    30    31    1
    29     7    10    1
    30    14    15   ar
    31    15    16   ar
    32    16    17   ar
    33    17    12   ar
    34     5     1   ar
    35    23    18   ar
    36    31    24    1
    37    10     3    1
@<TRIPOS>MOLECULE
*****
 33 37 0 0 0
SMALL
GASTEIGER

@<TRIPOS>ATOM
      1 N         139.7486  138.5752  157.8734 N.ar    1  UNL1       -0.2286
      2 C         139.2469  139.9838  157.9921 C.ar    1  UNL1        0.0990
      3 C         139.2274  140.3478  159.4472 C.ar    1  UNL1        0.0338
      4 C         139.7170  139.1641  160.2277 C.ar    1  UNL1        0.0981
      5 N         140.0391  138.0686  159.2551 N.ar    1  UNL1       -0.1680
      6 C         139.6975  139.5281  161.6828 C.3     1  UNL1        0.1414
      7 N         139.1957  140.9368  161.8015 N.am    1  UNL1       -0.2661
      8 C         139.0161  141.7040  163.0778 C.2     1  UNL1        0.2508
      9 O         138.5023  143.1128  163.0400 O.2     1  UNL1       -0.2698
     10 C         138.9052  141.4433  160.4198 C.3     1  UNL1        0.1236
     11 C         142.4161  135.1478  155.0209 C.3     1  UNL1        0.0521
     12 C         141.2621  136.0941  155.1708 C.ar    1  UNL1        0.0609
     13 C         141.0823  136.8615  156.4471 C.ar    1  UNL1        0.0339
     14 C         139.9283  137.8079  156.5971 C.ar    1  UNL1        0.0855
     15 C         138.9539  137.9869  155.4709 C.ar    1  UNL1        0.0398
     16 C         139.1336  137.2195  154.1946 C.ar    1  UNL1        0.1000
     17 N         140.2876  136.2731  154.0446 N.ar    1  UNL1       -0.2480
     18 C         139.3503  141.0626  164.3919 C.ar    1  UNL1        0.0676
     19 C         138.3611  140.1499  165.0540 C.ar    1  UNL1        0.0160
     20 C         138.6953  139.5085  166.3682 C.ar    1  UNL1        0.0687
     21 C         140.0186  139.7798  167.0202 C.ar    1  UNL1        0.0115
     22 C         141.0079  140.6925  166.3581 C.ar    1  UNL1        0.0154
     23 C         140.6737  141.3339  165.0439 C.ar    1  UNL1        0.0523
     24 N         141.6629  142.2466  164.3818 N.pl3   1  UNL1       -0.3070
     25 C         141.6189  143.7217  164.6503 C.3     1  UNL1        0.0964
     26 C         142.6081  144.6344  163.9882 C.3     1  UNL1        0.0880
     27 C         143.6413  144.0720  163.0575 C.3     1  UNL1        0.2672
     28 F         144.7988  144.0151  162.1052 F       1  UNL1       -0.2042
     29 F         143.9993  145.5273  162.9953 F       1  UNL1       -0.2042
     30 C         143.6854  142.5969  162.7889 C.3     1  UNL1        0.0880
     31 C         142.6961  141.6842  163.4511 C.3     1  UNL1        0.0964
     32 C         137.7060  138.5958  167.0303 C.1     1  UNL1        0.1004
     33 N         136.7168  137.6832  167.6924 N.1     1  UNL1       -0.1908
@<TRIPOS>BOND
     1    11    12    1
     2    12    13   ar
     3    13    14   ar
     4    14     1    1
     5     1     2   ar
     6     2     3   ar
     7     3     4   ar
     8     4     5   ar
     9     4     6    1
    10     6     7    1
    11     7     8   am
    12     8     9    2
    13     8    18    1
    14    18    19   ar
    15    19    20   ar
    16    20    32    1
    17    32    33    3
    18    20    21   ar
    19    21    22   ar
    20    22    23   ar
    21    23    24    1
    22    24    25    1
    23    25    26    1
    24    26    27    1
    25    27    28    1
    26    27    29    1
    27    27    30    1
    28    30    31    1
    29     7    10    1
    30    14    15   ar
    31    15    16   ar
    32    16    17   ar
    33    17    12   ar
    34     5     1   ar
    35    23    18   ar
    36    31    24    1
    37    10     3    1
@<TRIPOS>MOLECULE
*****
 33 37 0 0 0
SMALL
GASTEIGER

@<TRIPOS>ATOM
      1 N         141.8400  138.6923  159.8192 N.ar    1  UNL1       -0.2286
      2 C         142.7287  139.8728  160.0778 C.ar    1  UNL1        0.0990
      3 C         142.6408  140.2082  161.5372 C.ar    1  UNL1        0.0338
      4 C         141.6979  139.2350  162.1806 C.ar    1  UNL1        0.0981
      5 N         141.2030  138.2982  161.1188 N.ar    1  UNL1       -0.1680
      6 C         141.6101  139.5704  163.6399 C.3     1  UNL1        0.1414
      7 N         142.4988  140.7509  163.8986 N.am    1  UNL1       -0.2661
      8 C         142.7128  141.4198  165.2239 C.2     1  UNL1        0.2508
      9 O         143.6364  142.5970  165.3295 O.2     1  UNL1       -0.2698
     10 C         143.1358  141.1450  162.5989 C.3     1  UNL1        0.1236
     11 C         143.6810  135.9215  155.8276 C.3     1  UNL1        0.0521
     12 C         142.5465  136.6380  156.4979 C.ar    1  UNL1        0.0609
     13 C         142.7605  137.3069  157.8234 C.ar    1  UNL1        0.0339
     14 C         141.6259  138.0234  158.4938 C.ar    1  UNL1        0.0855
     15 C         140.2774  138.0711  157.8388 C.ar    1  UNL1        0.0398
     16 C         140.0634  137.4021  156.5133 C.ar    1  UNL1        0.1000
     17 N         141.1979  136.6856  155.8429 N.ar    1  UNL1       -0.2480
     18 C         142.0033  140.9114  166.4438 C.ar    1  UNL1        0.0676
     19 C         142.7287  140.0377  167.4238 C.ar    1  UNL1        0.0160
     20 C         142.0191  139.5293  168.6438 C.ar    1  UNL1        0.0687
     21 C         140.5843  139.8947  168.8837 C.ar    1  UNL1        0.0115
     22 C         139.8589  140.7685  167.9037 C.ar    1  UNL1        0.0154
     23 C         140.5684  141.2768  166.6838 C.ar    1  UNL1        0.0523
     24 N         139.8430  142.1506  165.7039 N.pl3   1  UNL1       -0.3070
     25 C         138.7454  141.5774  164.8572 C.3     1  UNL1        0.0964
     26 C         138.0201  142.4512  163.8772 C.3     1  UNL1        0.0880
     27 C         138.3923  143.8981  163.7439 C.3     1  UNL1        0.2672
     28 F         138.3820  145.3172  163.2579 F       1  UNL1       -0.2042
     29 F         137.2912  143.8178  162.7285 F       1  UNL1       -0.2042
     30 C         139.4898  144.4714  164.5904 C.3     1  UNL1        0.0880
     31 C         140.2152  143.5976  165.5705 C.3     1  UNL1        0.0964
     32 C         142.7446  138.6556  169.6237 C.1     1  UNL1        0.1004
     33 N         143.4701  137.7817  170.6035 N.1     1  UNL1       -0.1908
@<TRIPOS>BOND
     1    11    12    1
     2    12    13   ar
     3    13    14   ar
     4    14     1    1
     5     1     2   ar
     6     2     3   ar
     7     3     4   ar
     8     4     5   ar
     9     4     6    1
    10     6     7    1
    11     7     8   am
    12     8     9    2
    13     8    18    1
    14    18    19   ar
    15    19    20   ar
    16    20    32    1
    17    32    33    3
    18    20    21   ar
    19    21    22   ar
    20    22    23   ar
    21    23    24    1
    22    24    25    1
    23    25    26    1
    24    26    27    1
    25    27    28    1
    26    27    29    1
    27    27    30    1
    28    30    31    1
    29     7    10    1
    30    14    15   ar
    31    15    16   ar
    32    16    17   ar
    33    17    12   ar
    34     5     1   ar
    35    23    18   ar
    36    31    24    1
    37    10     3    1
@<TRIPOS>MOLECULE
*****
 33 37 0 0 0
SMALL
GASTEIGER

@<TRIPOS>ATOM
      1 N         138.9323  142.2362  158.3334 N.ar    1  UNL1       -0.2286
      2 C         139.7767  140.9988  158.2563 C.ar    1  UNL1        0.0990
      3 C         139.9910  140.4961  159.6532 C.ar    1  UNL1        0.0338
      4 C         139.2791  141.4227  160.5937 C.ar    1  UNL1        0.0981
      5 N         138.6248  142.4982  159.7780 N.ar    1  UNL1       -0.1680
      6 C         139.4933  140.9200  161.9906 C.3     1  UNL1        0.1414
      7 N         140.3378  139.6826  161.9134 N.am    1  UNL1       -0.2661
      8 C         140.7944  138.8529  163.0766 C.2     1  UNL1        0.2508
      9 O         141.6393  137.6355  162.8438 O.2     1  UNL1       -0.2698
     10 C         140.6453  139.4206  160.4688 C.3     1  UNL1        0.1236
     11 C         139.7019  146.1856  155.0456 C.3     1  UNL1        0.0521
     12 C         138.8605  145.0407  155.5263 C.ar    1  UNL1        0.0609
     13 C         139.3171  144.2109  156.6895 C.ar    1  UNL1        0.0339
     14 C         138.4757  143.0659  157.1703 C.ar    1  UNL1        0.0855
     15 C         137.1776  142.7507  156.4878 C.ar    1  UNL1        0.0398
     16 C         136.7211  143.5805  155.3246 C.ar    1  UNL1        0.1000
     17 N         137.5624  144.7255  154.8439 N.ar    1  UNL1       -0.2480
     18 C         140.4062  139.2405  164.4726 C.ar    1  UNL1        0.0676
     19 C         139.2093  138.6100  165.1207 C.ar    1  UNL1        0.0160
     20 C         138.8211  138.9976  166.5168 C.ar    1  UNL1        0.0687
     21 C         139.6296  140.0156  167.2649 C.ar    1  UNL1        0.0115
     22 C         140.8266  140.6462  166.6168 C.ar    1  UNL1        0.0154
     23 C         141.2148  140.2586  165.2208 C.ar    1  UNL1        0.0523
     24 N         142.4116  140.8891  164.5727 N.pl3   1  UNL1       -0.3070
     25 C         142.2710  142.1943  163.8469 C.3     1  UNL1        0.0964
     26 C         143.4679  142.8248  163.1989 C.3     1  UNL1        0.0880
     27 C         144.8054  142.1502  163.2767 C.3     1  UNL1        0.2672
     28 F         146.2707  141.8985  163.0784 F       1  UNL1       -0.2042
     29 F         145.1737  143.3679  162.4820 F       1  UNL1       -0.2042
     30 C         144.9461  140.8451  164.0024 C.3     1  UNL1        0.0880
     31 C         143.7492  140.2145  164.6505 C.3     1  UNL1        0.0964
     32 C         137.6242  138.3670  167.1648 C.1     1  UNL1        0.1004
     33 N         136.4273  137.7363  167.8126 N.1     1  UNL1       -0.1908
@<TRIPOS>BOND
     1    11    12    1
     2    12    13   ar
     3    13    14   ar
     4    14     1    1
     5     1     2   ar
     6     2     3   ar
     7     3     4   ar
     8     4     5   ar
     9     4     6    1
    10     6     7    1
    11     7     8   am
    12     8     9    2
    13     8    18    1
    14    18    19   ar
    15    19    20   ar
    16    20    32    1
    17    32    33    3
    18    20    21   ar
    19    21    22   ar
    20    22    23   ar
    21    23    24    1
    22    24    25    1
    23    25    26    1
    24    26    27    1
    25    27    28    1
    26    27    29    1
    27    27    30    1
    28    30    31    1
    29     7    10    1
    30    14    15   ar
    31    15    16   ar
    32    16    17   ar
    33    17    12   ar
    34     5     1   ar
    35    23    18   ar
    36    31    24    1
    37    10     3    1
@<TRIPOS>MOLECULE
*****
 33 37 0 0 0
SMALL
GASTEIGER

@<TRIPOS>ATOM
      1 N         140.7650  138.3786  159.0621 N.ar    1  UNL1       -0.2286
      2 C         139.4052  138.6913  159.6126 C.ar    1  UNL1        0.0990
      3 C         139.5813  139.2482  160.9942 C.ar    1  UNL1        0.0338
      4 C         141.0500  139.2797  161.2976 C.ar    1  UNL1        0.0981
      5 N         141.7816  138.7423  160.1035 N.ar    1  UNL1       -0.1680
      6 C         141.2261  139.8366  162.6792 C.3     1  UNL1        0.1414
      7 N         139.8663  140.1494  163.2298 N.am    1  UNL1       -0.2661
      8 C         139.5742  140.7247  164.5838 C.2     1  UNL1        0.2508
      9 O         138.1563  140.9852  164.9982 O.2     1  UNL1       -0.2698
     10 C         138.8497  139.7857  162.1883 C.3     1  UNL1        0.1236
     11 C         144.0999  136.2143  155.7163 C.3     1  UNL1        0.0521
     12 C         142.7245  136.7211  156.0350 C.ar    1  UNL1        0.0609
     13 C         142.4324  137.2965  157.3892 C.ar    1  UNL1        0.0339
     14 C         141.0571  137.8032  157.7080 C.ar    1  UNL1        0.0855
     15 C         139.9738  137.7347  156.6727 C.ar    1  UNL1        0.0398
     16 C         140.2660  137.1593  155.3186 C.ar    1  UNL1        0.1000
     17 N         141.6413  136.6525  154.9997 N.ar    1  UNL1       -0.2480
     18 C         140.7001  141.0397  165.5236 C.ar    1  UNL1        0.0676
     19 C         141.0832  140.0576  166.5908 C.ar    1  UNL1        0.0160
     20 C         142.2092  140.3726  167.5306 C.ar    1  UNL1        0.0687
     21 C         142.9519  141.6695  167.4033 C.ar    1  UNL1        0.0115
     22 C         142.5687  142.6516  166.3361 C.ar    1  UNL1        0.0154
     23 C         141.4429  142.3367  165.3963 C.ar    1  UNL1        0.0523
     24 N         141.0597  143.3187  164.3292 N.pl3   1  UNL1       -0.3070
     25 C         139.8191  144.1477  164.4832 C.3     1  UNL1        0.0964
     26 C         139.4360  145.1297  163.4161 C.3     1  UNL1        0.0880
     27 C         140.2935  145.2828  162.1949 C.3     1  UNL1        0.2672
     28 F         140.7785  145.7843  160.8671 F       1  UNL1       -0.2042
     29 F         139.2213  146.2859  161.8878 F       1  UNL1       -0.2042
     30 C         141.5340  144.4539  162.0408 C.3     1  UNL1        0.0880
     31 C         141.9173  143.4718  163.1079 C.3     1  UNL1        0.0964
     32 C         142.5922  139.3905  168.5977 C.1     1  UNL1        0.1004
     33 N         142.9753  138.4083  169.6647 N.1     1  UNL1       -0.1908
@<TRIPOS>BOND
     1    11    12    1
     2    12    13   ar
     3    13    14   ar
     4    14     1    1
     5     1     2   ar
     6     2     3   ar
     7     3     4   ar
     8     4     5   ar
     9     4     6    1
    10     6     7    1
    11     7     8   am
    12     8     9    2
    13     8    18    1
    14    18    19   ar
    15    19    20   ar
    16    20    32    1
    17    32    33    3
    18    20    21   ar
    19    21    22   ar
    20    22    23   ar
    21    23    24    1
    22    24    25    1
    23    25    26    1
    24    26    27    1
    25    27    28    1
    26    27    29    1
    27    27    30    1
    28    30    31    1
    29     7    10    1
    30    14    15   ar
    31    15    16   ar
    32    16    17   ar
    33    17    12   ar
    34     5     1   ar
    35    23    18   ar
    36    31    24    1
    37    10     3    1
@<TRIPOS>MOLECULE
*****
 33 37 0 0 0
SMALL
GASTEIGER

@<TRIPOS>ATOM
      1 N         138.1273  140.6378  157.9702 N.ar    1  UNL1       -0.2286
      2 C         139.2319  139.6246  158.0280 C.ar    1  UNL1        0.0990
      3 C         139.5955  139.4170  159.4684 C.ar    1  UNL1        0.0338
      4 C         138.7156  140.3018  160.3008 C.ar    1  UNL1        0.0981
      5 N         137.8082  141.0563  159.3749 N.ar    1  UNL1       -0.1680
      6 C         139.0791  140.0942  161.7412 C.3     1  UNL1        0.1414
      7 N         140.1838  139.0810  161.7990 N.am    1  UNL1       -0.2661
      8 C         140.8519  138.5752  163.0430 C.2     1  UNL1        0.2508
      9 O         141.9481  137.5560  162.9442 O.2     1  UNL1       -0.2698
     10 C         140.5028  138.6625  160.3943 C.3     1  UNL1        0.1236
     11 C         133.8629  141.1611  155.0477 C.3     1  UNL1        0.0521
     12 C         135.3268  141.4053  155.2649 C.ar    1  UNL1        0.0609
     13 C         135.9951  140.8995  156.5089 C.ar    1  UNL1        0.0339
     14 C         137.4591  141.1436  156.7262 C.ar    1  UNL1        0.0855
     15 C         138.2548  141.8937  155.6994 C.ar    1  UNL1        0.0398
     16 C         137.5865  142.3995  154.4554 C.ar    1  UNL1        0.1000
     17 N         136.1226  142.1553  154.2381 N.ar    1  UNL1       -0.2480
     18 C         140.4241  139.0886  164.3859 C.ar    1  UNL1        0.0676
     19 C         139.2523  138.4682  165.0874 C.ar    1  UNL1        0.0160
     20 C         138.8244  138.9816  166.4304 C.ar    1  UNL1        0.0687
     21 C         139.5682  140.1152  167.0717 C.ar    1  UNL1        0.0115
     22 C         140.7400  140.7356  166.3703 C.ar    1  UNL1        0.0154
     23 C         141.1679  140.2223  165.0274 C.ar    1  UNL1        0.0523
     24 N         142.3397  140.8426  164.3259 N.pl3   1  UNL1       -0.3070
     25 C         142.1230  141.9582  163.3468 C.3     1  UNL1        0.0964
     26 C         143.2948  142.5785  162.6453 C.3     1  UNL1        0.0880
     27 C         144.6832  142.0833  162.9229 C.3     1  UNL1        0.2672
     28 F         146.1765  141.9609  162.8519 F       1  UNL1       -0.2042
     29 F         144.9852  143.1563  161.9191 F       1  UNL1       -0.2042
     30 C         144.8999  140.9679  163.9019 C.3     1  UNL1        0.0880
     31 C         143.7282  140.3474  164.6035 C.3     1  UNL1        0.0964
     32 C         137.6526  138.3611  167.1318 C.1     1  UNL1        0.1004
     33 N         136.4808  137.7407  167.8333 N.1     1  UNL1       -0.1908
@<TRIPOS>BOND
     1    11    12    1
     2    12    13   ar
     3    13    14   ar
     4    14     1    1
     5     1     2   ar
     6     2     3   ar
     7     3     4   ar
     8     4     5   ar
     9     4     6    1
    10     6     7    1
    11     7     8   am
    12     8     9    2
    13     8    18    1
    14    18    19   ar
    15    19    20   ar
    16    20    32    1
    17    32    33    3
    18    20    21   ar
    19    21    22   ar
    20    22    23   ar
    21    23    24    1
    22    24    25    1
    23    25    26    1
    24    26    27    1
    25    27    28    1
    26    27    29    1
    27    27    30    1
    28    30    31    1
    29     7    10    1
    30    14    15   ar
    31    15    16   ar
    32    16    17   ar
    33    17    12   ar
    34     5     1   ar
    35    23    18   ar
    36    31    24    1
    37    10     3    1
@<TRIPOS>MOLECULE
*****
 33 37 0 0 0
SMALL
GASTEIGER

@<TRIPOS>ATOM
      1 N         140.5683  144.0571  159.9395 N.ar    1  UNL1       -0.2286
      2 C         141.9472  144.3291  160.4633 C.ar    1  UNL1        0.0990
      3 C         142.0257  143.7933  161.8621 C.ar    1  UNL1        0.0338
      4 C         140.6953  143.1900  162.2028 C.ar    1  UNL1        0.0981
      5 N         139.7945  143.3531  161.0145 N.ar    1  UNL1       -0.1680
      6 C         140.7737  142.6542  163.6016 C.3     1  UNL1        0.1414
      7 N         142.1528  142.9262  164.1255 N.am    1  UNL1       -0.2661
      8 C         142.6676  142.5588  165.4856 C.2     1  UNL1        0.2508
      9 O         144.0772  142.8975  165.8707 O.2     1  UNL1       -0.2698
     10 C         142.9265  143.6302  163.0504 C.3     1  UNL1        0.1236
     11 C         137.9405  142.8084  155.6341 C.3     1  UNL1        0.0521
     12 C         138.7395  143.8002  156.4266 C.ar    1  UNL1        0.0609
     13 C         139.2544  143.4328  157.7868 C.ar    1  UNL1        0.0339
     14 C         140.0534  144.4245  158.5793 C.ar    1  UNL1        0.0855
     15 C         140.3375  145.7836  158.0118 C.ar    1  UNL1        0.0398
     16 C         139.8226  146.1509  156.6516 C.ar    1  UNL1        0.1000
     17 N         139.0236  145.1593  155.8591 N.ar    1  UNL1       -0.2480
     18 C         141.7728  141.8527  166.4607 C.ar    1  UNL1        0.0676
     19 C         141.2688  142.5749  167.6749 C.ar    1  UNL1        0.0160
     20 C         140.3740  141.8688  168.6500 C.ar    1  UNL1        0.0687
     21 C         139.9833  140.4405  168.4109 C.ar    1  UNL1        0.0115
     22 C         140.4873  139.7182  167.1967 C.ar    1  UNL1        0.0154
     23 C         141.3820  140.4243  166.2216 C.ar    1  UNL1        0.0523
     24 N         141.8860  139.7021  165.0074 N.pl3   1  UNL1       -0.3070
     25 C         140.9149  139.1455  164.0088 C.3     1  UNL1        0.0964
     26 C         141.4189  138.4233  162.7946 C.3     1  UNL1        0.0880
     27 C         142.8941  138.2577  162.5789 C.3     1  UNL1        0.2672
     28 F         144.1880  137.8495  161.9393 F       1  UNL1       -0.2042
     29 F         142.3724  137.5593  161.3582 F       1  UNL1       -0.2042
     30 C         143.8653  138.8142  163.5774 C.3     1  UNL1        0.0880
     31 C         143.3613  139.5365  164.7917 C.3     1  UNL1        0.0964
     32 C         139.8700  142.5911  169.8642 C.1     1  UNL1        0.1004
     33 N         139.3660  143.3133  171.0785 N.1     1  UNL1       -0.1908
@<TRIPOS>BOND
     1    11    12    1
     2    12    13   ar
     3    13    14   ar
     4    14     1    1
     5     1     2   ar
     6     2     3   ar
     7     3     4   ar
     8     4     5   ar
     9     4     6    1
    10     6     7    1
    11     7     8   am
    12     8     9    2
    13     8    18    1
    14    18    19   ar
    15    19    20   ar
    16    20    32    1
    17    32    33    3
    18    20    21   ar
    19    21    22   ar
    20    22    23   ar
    21    23    24    1
    22    24    25    1
    23    25    26    1
    24    26    27    1
    25    27    28    1
    26    27    29    1
    27    27    30    1
    28    30    31    1
    29     7    10    1
    30    14    15   ar
    31    15    16   ar
    32    16    17   ar
    33    17    12   ar
    34     5     1   ar
    35    23    18   ar
    36    31    24    1
    37    10     3    1
@<TRIPOS>MOLECULE
*****
 33 37 0 0 0
SMALL
GASTEIGER

@<TRIPOS>ATOM
      1 N         141.7855  143.6559  159.0328 N.ar    1  UNL1       -0.2286
      2 C         142.5836  142.3879  159.1043 C.ar    1  UNL1        0.0990
      3 C         142.5403  141.8922  160.5193 C.ar    1  UNL1        0.0338
      4 C         141.7154  142.8537  161.3224 C.ar    1  UNL1        0.0981
      5 N         141.2489  143.9438  160.4037 N.ar    1  UNL1       -0.1680
      6 C         141.6721  142.3579  162.7374 C.3     1  UNL1        0.1414
      7 N         142.4703  141.0899  162.8089 N.am    1  UNL1       -0.2661
      8 C         142.6928  140.2562  164.0358 C.2     1  UNL1        0.2508
      9 O         143.5185  139.0065  163.9538 O.2     1  UNL1       -0.2698
     10 C         143.0069  140.8021  161.4380 C.3     1  UNL1        0.1236
     11 C         139.1197  147.3397  156.5181 C.3     1  UNL1        0.0521
     12 C         140.2300  146.3316  156.5485 C.ar    1  UNL1        0.0609
     13 C         140.4526  145.4978  157.7754 C.ar    1  UNL1        0.0339
     14 C         141.5629  144.4897  157.8059 C.ar    1  UNL1        0.0855
     15 C         142.4507  144.3154  156.6095 C.ar    1  UNL1        0.0398
     16 C         142.2281  145.1493  155.3826 C.ar    1  UNL1        0.1000
     17 N         141.1178  146.1573  155.3521 N.ar    1  UNL1       -0.2480
     18 C         142.0896  140.6720  165.3447 C.ar    1  UNL1        0.0676
     19 C         142.9559  141.2698  166.4134 C.ar    1  UNL1        0.0160
     20 C         142.3527  141.6857  167.7224 C.ar    1  UNL1        0.0687
     21 C         140.8834  141.5037  167.9626 C.ar    1  UNL1        0.0115
     22 C         140.0171  140.9058  166.8939 C.ar    1  UNL1        0.0154
     23 C         140.6202  140.4900  165.5850 C.ar    1  UNL1        0.0523
     24 N         139.7539  139.8921  164.5163 N.pl3   1  UNL1       -0.3070
     25 C         138.8749  140.7758  163.6818 C.3     1  UNL1        0.0964
     26 C         138.0086  140.1780  162.6131 C.3     1  UNL1        0.0880
     27 C         138.0214  138.6964  162.3789 C.3     1  UNL1        0.2672
     28 F         137.6887  137.3607  161.7830 F       1  UNL1       -0.2042
     29 F         137.0268  139.1162  161.3374 F       1  UNL1       -0.2042
     30 C         138.9004  137.8127  163.2133 C.3     1  UNL1        0.0880
     31 C         139.7667  138.4105  164.2821 C.3     1  UNL1        0.0964
     32 C         143.2191  142.2835  168.7910 C.1     1  UNL1        0.1004
     33 N         144.0856  142.8814  169.8595 N.1     1  UNL1       -0.1908
@<TRIPOS>BOND
     1    11    12    1
     2    12    13   ar
     3    13    14   ar
     4    14     1    1
     5     1     2   ar
     6     2     3   ar
     7     3     4   ar
     8     4     5   ar
     9     4     6    1
    10     6     7    1
    11     7     8   am
    12     8     9    2
    13     8    18    1
    14    18    19   ar
    15    19    20   ar
    16    20    32    1
    17    32    33    3
    18    20    21   ar
    19    21    22   ar
    20    22    23   ar
    21    23    24    1
    22    24    25    1
    23    25    26    1
    24    26    27    1
    25    27    28    1
    26    27    29    1
    27    27    30    1
    28    30    31    1
    29     7    10    1
    30    14    15   ar
    31    15    16   ar
    32    16    17   ar
    33    17    12   ar
    34     5     1   ar
    35    23    18   ar
    36    31    24    1
    37    10     3    1
@<TRIPOS>MOLECULE
*****
 33 37 0 0 0
SMALL
GASTEIGER

@<TRIPOS>ATOM
      1 N         140.4579  144.1204  159.1475 N.ar    1  UNL1       -0.2286
      2 C         141.9032  144.2831  159.5145 C.ar    1  UNL1        0.0990
      3 C         142.0843  143.7836  160.9172 C.ar    1  UNL1        0.0338
      4 C         140.7510  143.3121  161.4172 C.ar    1  UNL1        0.0981
      5 N         139.7458  143.5203  160.3234 N.ar    1  UNL1       -0.1680
      6 C         140.9320  142.8126  162.8199 C.3     1  UNL1        0.1414
      7 N         142.3774  142.9754  163.1870 N.am    1  UNL1       -0.2661
      8 C         143.0010  142.6033  164.4994 C.2     1  UNL1        0.2508
      9 O         144.4676  142.8256  164.7228 O.2     1  UNL1       -0.2698
     10 C         143.0895  143.5755  162.0110 C.3     1  UNL1        0.1236
     11 C         139.5139  147.6513  155.4541 C.3     1  UNL1        0.0521
     12 C         139.3622  146.2579  155.9883 C.ar    1  UNL1        0.0609
     13 C         139.9859  145.8858  157.3008 C.ar    1  UNL1        0.0339
     14 C         139.8343  144.4924  157.8350 C.ar    1  UNL1        0.0855
     15 C         139.0589  143.4710  157.0568 C.ar    1  UNL1        0.0398
     16 C         138.4353  143.8432  155.7443 C.ar    1  UNL1        0.1000
     17 N         138.5869  145.2365  155.2100 N.ar    1  UNL1       -0.2480
     18 C         142.1582  142.0090  165.5886 C.ar    1  UNL1        0.0676
     19 C         141.7372  142.8521  166.7557 C.ar    1  UNL1        0.0160
     20 C         140.8943  142.2577  167.8450 C.ar    1  UNL1        0.0687
     21 C         140.4725  140.8205  167.7671 C.ar    1  UNL1        0.0115
     22 C         140.8934  139.9774  166.6000 C.ar    1  UNL1        0.0154
     23 C         141.7362  140.5717  165.5108 C.ar    1  UNL1        0.0523
     24 N         142.1572  139.7286  164.3438 N.pl3   1  UNL1       -0.3070
     25 C         143.6093  139.4232  164.1241 C.3     1  UNL1        0.0964
     26 C         144.0302  138.5802  162.9571 C.3     1  UNL1        0.0880
     27 C         142.9991  138.0426  162.0096 C.3     1  UNL1        0.2672
     28 F         142.4000  137.3105  160.8454 F       1  UNL1       -0.2042
     29 F         144.2431  137.4829  161.3857 F       1  UNL1       -0.2042
     30 C         141.5470  138.3479  162.2291 C.3     1  UNL1        0.0880
     31 C         141.1260  139.1909  163.3962 C.3     1  UNL1        0.0964
     32 C         140.4734  143.1009  169.0120 C.1     1  UNL1        0.1004
     33 N         140.0525  143.9441  170.1789 N.1     1  UNL1       -0.1908
@<TRIPOS>BOND
     1    11    12    1
     2    12    13   ar
     3    13    14   ar
     4    14     1    1
     5     1     2   ar
     6     2     3   ar
     7     3     4   ar
     8     4     5   ar
     9     4     6    1
    10     6     7    1
    11     7     8   am
    12     8     9    2
    13     8    18    1
    14    18    19   ar
    15    19    20   ar
    16    20    32    1
    17    32    33    3
    18    20    21   ar
    19    21    22   ar
    20    22    23   ar
    21    23    24    1
    22    24    25    1
    23    25    26    1
    24    26    27    1
    25    27    28    1
    26    27    29    1
    27    27    30    1
    28    30    31    1
    29     7    10    1
    30    14    15   ar
    31    15    16   ar
    32    16    17   ar
    33    17    12   ar
    34     5     1   ar
    35    23    18   ar
    36    31    24    1
    37    10     3    1
