@<TRIPOS>MOLECULE
*****
 35 39 0 0 0
SMALL
GASTEIGER

@<TRIPOS>ATOM
      1 C         143.5958  137.6084  156.0478 C.ar    1  UNL1        0.0829
      2 C         144.5581  138.1415  155.0281 C.ar    1  UNL1        0.0193
      3 C         145.1715  139.4978  155.2129 C.ar    1  UNL1        0.0074
      4 C         144.8227  140.3210  156.4173 C.ar    1  UNL1        0.0676
      5 C         145.4362  141.6773  156.6021 C.ar    1  UNL1        0.1376
      6 N         145.0874  142.5005  157.8065 N.ar    1  UNL1       -0.1986
      7 C         144.1251  141.9673  158.8263 C.ar    1  UNL1        0.2227
      8 N         143.5116  140.6110  158.6415 N.ar    1  UNL1       -0.1944
      9 C         143.8605  139.7879  157.4370 C.ar    1  UNL1        0.1678
     10 N         143.2470  138.4316  157.2523 N.ar    1  UNL1       -0.2264
     11 N         146.3985  142.2104  155.5824 N.pl3   1  UNL1       -0.2897
     12 C         147.8559  141.8681  155.6755 C.3     1  UNL1        0.1242
     13 C         148.8182  142.4012  154.6558 C.3     1  UNL1        0.1636
     14 O         148.3230  143.2766  153.5429 O.3     1  UNL1       -0.3502
     15 C         146.8656  143.6189  153.4498 C.3     1  UNL1        0.1618
     16 C         145.9033  143.0858  154.4695 C.3     1  UNL1        0.1038
     17 C         144.4459  143.4281  154.3763 C.3     1  UNL1        0.0241
     18 N         143.7763  142.7905  160.0307 N.pl3   1  UNL1       -0.2753
     19 C         142.4768  143.5384  160.0773 C.3     1  UNL1        0.1109
     20 C         142.1280  144.3616  161.2817 C.3     1  UNL1        0.0939
     21 N         143.0786  144.4368  162.4396 N.3     1  UNL1       -0.2686
     22 C         142.7298  145.2600  163.6441 C.3     1  UNL1        0.0897
     23 C         144.3780  143.6889  162.3930 C.3     1  UNL1        0.0939
     24 C         144.7268  142.8657  161.1886 C.3     1  UNL1        0.1109
     25 C         141.7554  133.5395  155.4936 C.ar    1  UNL1        0.1370
     26 C         141.1053  134.7460  154.8840 C.ar    1  UNL1        0.0367
     27 C         141.7188  136.1024  155.0687 C.ar    1  UNL1        0.0046
     28 C         142.9823  136.2521  155.8631 C.ar    1  UNL1        0.0177
     29 C         143.6324  135.0456  156.4727 C.ar    1  UNL1        0.0027
     30 C         143.0190  133.6893  156.2880 C.ar    1  UNL1        0.0410
     31 C         143.6691  132.4828  156.8977 C.3     1  UNL1        0.1666
     32 O         142.8427  131.4912  157.6618 O.3     1  UNL1       -0.3771
     33 H         142.4944  131.9107  158.4641 H       1  UNL1        0.2109
     34 C         141.4183  131.3988  154.0607 C.3     1  UNL1        0.2525
     35 O         141.1419  132.1832  155.3090 O.3     1  UNL1       -0.4717
@<TRIPOS>BOND
     1    34    35    1
     2    35    25    1
     3    25    26   ar
     4    26    27   ar
     5    27    28   ar
     6    28     1    1
     7     1     2   ar
     8     2     3   ar
     9     3     4   ar
    10     4     5   ar
    11     5    11    1
    12    11    12    1
    13    12    13    1
    14    13    14    1
    15    14    15    1
    16    15    16    1
    17    16    17    1
    18     5     6   ar
    19     6     7   ar
    20     7    18    1
    21    18    19    1
    22    19    20    1
    23    20    21    1
    24    21    22    1
    25    21    23    1
    26    23    24    1
    27     7     8   ar
    28     8     9   ar
    29     9    10   ar
    30    28    29   ar
    31    29    30   ar
    32    30    31    1
    33    31    32    1
    34    30    25   ar
    35    10     1   ar
    36     9     4   ar
    37    16    11    1
    38    24    18    1
    39    32    33    1
@<TRIPOS>MOLECULE
*****
 35 39 0 0 0
SMALL
GASTEIGER

@<TRIPOS>ATOM
      1 C         139.6955  139.8070  162.5568 C.ar    1  UNL1        0.0829
      2 C         140.1737  138.5964  161.8113 C.ar    1  UNL1        0.0193
      3 C         140.4376  138.6793  160.3371 C.ar    1  UNL1        0.0074
      4 C         140.2234  139.9728  159.6084 C.ar    1  UNL1        0.0676
      5 C         140.4874  140.0557  158.1340 C.ar    1  UNL1        0.1376
      6 N         140.2733  141.3492  157.4054 N.ar    1  UNL1       -0.1986
      7 C         139.7951  142.5598  158.1510 C.ar    1  UNL1        0.2227
      8 N         139.5312  142.4769  159.6252 N.ar    1  UNL1       -0.1944
      9 C         139.7453  141.1834  160.3539 C.ar    1  UNL1        0.1678
     10 N         139.4814  141.1005  161.8281 N.ar    1  UNL1       -0.2264
     11 N         140.9656  138.8452  157.3885 N.pl3   1  UNL1       -0.2897
     12 C         139.9734  137.8905  156.7933 C.3     1  UNL1        0.1242
     13 C         140.4516  136.6799  156.0478 C.3     1  UNL1        0.1636
     14 O         141.9219  136.4240  155.8974 O.3     1  UNL1       -0.3502
     15 C         142.9141  137.3786  156.4926 C.3     1  UNL1        0.1618
     16 C         142.4359  138.5892  157.2381 C.3     1  UNL1        0.1038
     17 C         143.4281  139.5438  157.8333 C.3     1  UNL1        0.0241
     18 N         139.5809  143.8533  157.4223 N.pl3   1  UNL1       -0.2753
     19 C         140.2178  145.1136  157.9284 C.3     1  UNL1        0.1109
     20 C         140.0036  146.4071  157.1997 C.3     1  UNL1        0.0939
     21 N         139.1526  146.4403  155.9649 N.3     1  UNL1       -0.2686
     22 C         138.9384  147.7338  155.2362 C.3     1  UNL1        0.0897
     23 C         138.5158  145.1801  155.4588 C.3     1  UNL1        0.0939
     24 C         138.7300  143.8866  156.1875 C.3     1  UNL1        0.1109
     25 C         138.9036  139.5583  166.9797 C.ar    1  UNL1        0.1370
     26 C         139.6434  140.7348  166.4152 C.ar    1  UNL1        0.0367
     27 C         139.9073  140.8176  164.9409 C.ar    1  UNL1        0.0046
     28 C         139.4315  139.7241  164.0311 C.ar    1  UNL1        0.0177
     29 C         138.6918  138.5476  164.5956 C.ar    1  UNL1        0.0027
     30 C         138.4278  138.4647  166.0698 C.ar    1  UNL1        0.0410
     31 C         137.6880  137.2882  166.6343 C.3     1  UNL1        0.1666
     32 O         136.6001  137.5009  167.6449 O.3     1  UNL1       -0.3771
     33 H         136.9827  137.8589  168.4612 H       1  UNL1        0.2109
     34 C         139.4208  140.3326  169.4051 C.3     1  UNL1        0.2525
     35 O         138.6396  139.4754  168.4539 O.3     1  UNL1       -0.4717
@<TRIPOS>BOND
     1    34    35    1
     2    35    25    1
     3    25    26   ar
     4    26    27   ar
     5    27    28   ar
     6    28     1    1
     7     1     2   ar
     8     2     3   ar
     9     3     4   ar
    10     4     5   ar
    11     5    11    1
    12    11    12    1
    13    12    13    1
    14    13    14    1
    15    14    15    1
    16    15    16    1
    17    16    17    1
    18     5     6   ar
    19     6     7   ar
    20     7    18    1
    21    18    19    1
    22    19    20    1
    23    20    21    1
    24    21    22    1
    25    21    23    1
    26    23    24    1
    27     7     8   ar
    28     8     9   ar
    29     9    10   ar
    30    28    29   ar
    31    29    30   ar
    32    30    31    1
    33    31    32    1
    34    30    25   ar
    35    10     1   ar
    36     9     4   ar
    37    16    11    1
    38    24    18    1
    39    32    33    1
@<TRIPOS>MOLECULE
*****
 35 39 0 0 0
SMALL
GASTEIGER

@<TRIPOS>ATOM
      1 C         139.9400  140.4872  163.0017 C.ar    1  UNL1        0.0829
      2 C         139.9652  141.8965  162.4887 C.ar    1  UNL1        0.0193
      3 C         140.2891  142.1649  161.0489 C.ar    1  UNL1        0.0074
      4 C         140.5878  141.0239  160.1221 C.ar    1  UNL1        0.0676
      5 C         140.9118  141.2923  158.6823 C.ar    1  UNL1        0.1376
      6 N         141.2105  140.1513  157.7555 N.ar    1  UNL1       -0.1986
      7 C         141.1852  138.7420  158.2685 C.ar    1  UNL1        0.2227
      8 N         140.8613  138.4736  159.7083 N.ar    1  UNL1       -0.1944
      9 C         140.5626  139.6146  160.6351 C.ar    1  UNL1        0.1678
     10 N         140.2387  139.3463  162.0749 N.ar    1  UNL1       -0.2264
     11 N         140.9370  142.7016  158.1693 N.pl3   1  UNL1       -0.2897
     12 C         139.6910  143.3164  157.6041 C.3     1  UNL1        0.1242
     13 C         139.7162  144.7258  157.0911 C.3     1  UNL1        0.1636
     14 O         140.9875  145.5203  157.1433 O.3     1  UNL1       -0.3502
     15 C         142.2335  144.9054  157.7085 C.3     1  UNL1        0.1618
     16 C         142.2082  143.4961  158.2215 C.3     1  UNL1        0.1038
     17 C         143.4543  142.8813  158.7867 C.3     1  UNL1        0.0241
     18 N         141.4840  137.6010  157.3417 N.pl3   1  UNL1       -0.2753
     19 C         142.7781  136.8527  157.4661 C.3     1  UNL1        0.1109
     20 C         143.0768  135.7117  156.5393 C.3     1  UNL1        0.0939
     21 N         142.0814  135.3190  155.4881 N.3     1  UNL1       -0.2686
     22 C         142.3801  134.1781  154.5613 C.3     1  UNL1        0.0897
     23 C         140.7873  136.0673  155.3637 C.3     1  UNL1        0.0939
     24 C         140.4886  137.2083  156.2905 C.3     1  UNL1        0.1109
     25 C         138.9682  139.6820  167.3212 C.ar    1  UNL1        0.1370
     26 C         139.7520  140.9040  166.9440 C.ar    1  UNL1        0.0367
     27 C         140.0759  141.1724  165.5041 C.ar    1  UNL1        0.0046
     28 C         139.6161  140.2188  164.4415 C.ar    1  UNL1        0.0177
     29 C         138.8322  138.9968  164.8187 C.ar    1  UNL1        0.0027
     30 C         138.5083  138.7284  166.2585 C.ar    1  UNL1        0.0410
     31 C         137.7245  137.5064  166.6357 C.3     1  UNL1        0.1666
     32 O         136.6364  137.6010  167.6638 O.3     1  UNL1       -0.3771
     33 H         137.0242  137.8176  168.5261 H       1  UNL1        0.2109
     34 C         139.0715  140.3864  169.8197 C.3     1  UNL1        0.2525
     35 O         138.6442  139.4136  168.7609 O.3     1  UNL1       -0.4717
@<TRIPOS>BOND
     1    34    35    1
     2    35    25    1
     3    25    26   ar
     4    26    27   ar
     5    27    28   ar
     6    28     1    1
     7     1     2   ar
     8     2     3   ar
     9     3     4   ar
    10     4     5   ar
    11     5    11    1
    12    11    12    1
    13    12    13    1
    14    13    14    1
    15    14    15    1
    16    15    16    1
    17    16    17    1
    18     5     6   ar
    19     6     7   ar
    20     7    18    1
    21    18    19    1
    22    19    20    1
    23    20    21    1
    24    21    22    1
    25    21    23    1
    26    23    24    1
    27     7     8   ar
    28     8     9   ar
    29     9    10   ar
    30    28    29   ar
    31    29    30   ar
    32    30    31    1
    33    31    32    1
    34    30    25   ar
    35    10     1   ar
    36     9     4   ar
    37    16    11    1
    38    24    18    1
    39    32    33    1
@<TRIPOS>MOLECULE
*****
 35 39 0 0 0
SMALL
GASTEIGER

@<TRIPOS>ATOM
      1 C         142.5995  139.8347  158.5115 C.ar    1  UNL1        0.0829
      2 C         141.6102  140.2210  157.4523 C.ar    1  UNL1        0.0193
      3 C         141.1133  139.1931  156.4795 C.ar    1  UNL1        0.0074
      4 C         141.6056  137.7788  156.5660 C.ar    1  UNL1        0.0676
      5 C         141.1086  136.7509  155.5931 C.ar    1  UNL1        0.1376
      6 N         141.6009  135.3366  155.6796 N.ar    1  UNL1       -0.1986
      7 C         142.5902  134.9503  156.7389 C.ar    1  UNL1        0.2227
      8 N         143.0871  135.9782  157.7117 N.ar    1  UNL1       -0.1944
      9 C         142.5948  137.3925  157.6252 C.ar    1  UNL1        0.1678
     10 N         143.0918  138.4204  158.5980 N.ar    1  UNL1       -0.2264
     11 N         140.1193  137.1372  154.5338 N.pl3   1  UNL1       -0.2897
     12 C         138.6532  137.1612  154.8498 C.3     1  UNL1        0.1242
     13 C         137.6639  137.5475  153.7904 C.3     1  UNL1        0.1636
     14 O         138.1408  137.9099  152.4152 O.3     1  UNL1       -0.3502
     15 C         139.6070  137.8859  152.0993 C.3     1  UNL1        0.1618
     16 C         140.5962  137.4996  153.1585 C.3     1  UNL1        0.1038
     17 C         142.0624  137.4756  152.8426 C.3     1  UNL1        0.0241
     18 N         143.0825  133.5360  156.8254 N.pl3   1  UNL1       -0.2753
     19 C         144.3232  133.2202  157.6072 C.3     1  UNL1        0.1109
     20 C         144.8155  131.8060  157.6936 C.3     1  UNL1        0.0939
     21 N         144.0671  130.7075  156.9983 N.3     1  UNL1       -0.2686
     22 C         144.5595  129.2932  157.0848 C.3     1  UNL1        0.0897
     23 C         142.8266  131.0233  156.2166 C.3     1  UNL1        0.0939
     24 C         142.3342  132.4376  156.1301 C.3     1  UNL1        0.1109
     25 C         144.0905  142.9184  161.4301 C.ar    1  UNL1        0.1370
     26 C         143.3029  143.3439  160.2265 C.ar    1  UNL1        0.0367
     27 C         142.8059  142.3160  159.2536 C.ar    1  UNL1        0.0046
     28 C         143.0965  140.8626  159.4844 C.ar    1  UNL1        0.0177
     29 C         143.8841  140.4371  160.6880 C.ar    1  UNL1        0.0027
     30 C         144.3811  141.4650  161.6608 C.ar    1  UNL1        0.0410
     31 C         145.1687  141.0395  162.8644 C.3     1  UNL1        0.1666
     32 O         146.3960  141.8027  163.2658 O.3     1  UNL1       -0.3771
     33 H         147.0770  141.7024  162.5824 H       1  UNL1        0.2109
     34 C         143.6224  144.6442  163.3148 C.3     1  UNL1        0.2525
     35 O         144.5874  143.9463  162.4029 O.3     1  UNL1       -0.4717
@<TRIPOS>BOND
     1    34    35    1
     2    35    25    1
     3    25    26   ar
     4    26    27   ar
     5    27    28   ar
     6    28     1    1
     7     1     2   ar
     8     2     3   ar
     9     3     4   ar
    10     4     5   ar
    11     5    11    1
    12    11    12    1
    13    12    13    1
    14    13    14    1
    15    14    15    1
    16    15    16    1
    17    16    17    1
    18     5     6   ar
    19     6     7   ar
    20     7    18    1
    21    18    19    1
    22    19    20    1
    23    20    21    1
    24    21    22    1
    25    21    23    1
    26    23    24    1
    27     7     8   ar
    28     8     9   ar
    29     9    10   ar
    30    28    29   ar
    31    29    30   ar
    32    30    31    1
    33    31    32    1
    34    30    25   ar
    35    10     1   ar
    36     9     4   ar
    37    16    11    1
    38    24    18    1
    39    32    33    1
@<TRIPOS>MOLECULE
*****
 35 39 0 0 0
SMALL
GASTEIGER

@<TRIPOS>ATOM
      1 C         143.5439  140.7809  161.5847 C.ar    1  UNL1        0.0829
      2 C         144.0753  141.8671  160.6971 C.ar    1  UNL1        0.0193
      3 C         144.2109  141.6311  159.2221 C.ar    1  UNL1        0.0074
      4 C         143.8151  140.3089  158.6345 C.ar    1  UNL1        0.0676
      5 C         143.9508  140.0730  157.1594 C.ar    1  UNL1        0.1376
      6 N         143.5550  138.7508  156.5718 N.ar    1  UNL1       -0.1986
      7 C         143.0236  137.6646  157.4595 C.ar    1  UNL1        0.2227
      8 N         142.8879  137.9006  158.9345 N.ar    1  UNL1       -0.1944
      9 C         143.2837  139.2228  159.5221 C.ar    1  UNL1        0.1678
     10 N         143.1481  139.4588  160.9971 N.ar    1  UNL1       -0.2264
     11 N         144.4822  141.1592  156.2718 N.pl3   1  UNL1       -0.2897
     12 C         145.9579  141.2743  156.0287 C.3     1  UNL1        0.1242
     13 C         146.4893  142.3605  155.1411 C.3     1  UNL1        0.1636
     14 O         145.5450  143.3316  154.4967 O.3     1  UNL1       -0.3502
     15 C         144.0693  143.2165  154.7398 C.3     1  UNL1        0.1618
     16 C         143.5379  142.1303  155.6274 C.3     1  UNL1        0.1038
     17 C         142.0622  142.0152  155.8705 C.3     1  UNL1        0.0241
     18 N         142.6278  136.3424  156.8719 N.pl3   1  UNL1       -0.2753
     19 C         141.5517  136.2771  155.8288 C.3     1  UNL1        0.1109
     20 C         141.1560  134.9550  155.2413 C.3     1  UNL1        0.0939
     21 N         141.8362  133.6980  155.6969 N.3     1  UNL1       -0.2686
     22 C         141.4404  132.3759  155.1094 C.3     1  UNL1        0.0897
     23 C         142.9122  133.7633  156.7399 C.3     1  UNL1        0.0939
     24 C         143.3079  135.0855  157.3275 C.3     1  UNL1        0.1109
     25 C         143.1369  141.4888  166.0100 C.ar    1  UNL1        0.1370
     26 C         143.5089  142.6220  165.1003 C.ar    1  UNL1        0.0367
     27 C         143.6445  142.3860  163.6252 C.ar    1  UNL1        0.0046
     28 C         143.4082  141.0169  163.0598 C.ar    1  UNL1        0.0177
     29 C         143.0363  139.8837  163.9695 C.ar    1  UNL1        0.0027
     30 C         142.9006  140.1196  165.4446 C.ar    1  UNL1        0.0410
     31 C         142.5287  138.9864  166.3543 C.3     1  UNL1        0.1666
     32 O         143.2285  138.8207  167.6706 O.3     1  UNL1       -0.3771
     33 H         144.1615  138.6051  167.5159 H       1  UNL1        0.2109
     34 C         141.6873  142.1694  168.0558 C.3     1  UNL1        0.2525
     35 O         143.0013  141.7247  167.4851 O.3     1  UNL1       -0.4717
@<TRIPOS>BOND
     1    34    35    1
     2    35    25    1
     3    25    26   ar
     4    26    27   ar
     5    27    28   ar
     6    28     1    1
     7     1     2   ar
     8     2     3   ar
     9     3     4   ar
    10     4     5   ar
    11     5    11    1
    12    11    12    1
    13    12    13    1
    14    13    14    1
    15    14    15    1
    16    15    16    1
    17    16    17    1
    18     5     6   ar
    19     6     7   ar
    20     7    18    1
    21    18    19    1
    22    19    20    1
    23    20    21    1
    24    21    22    1
    25    21    23    1
    26    23    24    1
    27     7     8   ar
    28     8     9   ar
    29     9    10   ar
    30    28    29   ar
    31    29    30   ar
    32    30    31    1
    33    31    32    1
    34    30    25   ar
    35    10     1   ar
    36     9     4   ar
    37    16    11    1
    38    24    18    1
    39    32    33    1
@<TRIPOS>MOLECULE
*****
 35 39 0 0 0
SMALL
GASTEIGER

@<TRIPOS>ATOM
      1 C         141.7817  141.1441  160.2850 C.ar    1  UNL1        0.0829
      2 C         142.5576  142.0525  159.3780 C.ar    1  UNL1        0.0193
      3 C         143.2013  141.5042  158.1392 C.ar    1  UNL1        0.0074
      4 C         143.0691  140.0474  157.8072 C.ar    1  UNL1        0.0676
      5 C         143.7129  139.4991  156.5682 C.ar    1  UNL1        0.1376
      6 N         143.5807  138.0423  156.2362 N.ar    1  UNL1       -0.1986
      7 C         142.8048  137.1338  157.1432 C.ar    1  UNL1        0.2227
      8 N         142.1610  137.6821  158.3821 N.ar    1  UNL1       -0.1944
      9 C         142.2932  139.1389  158.7141 C.ar    1  UNL1        0.1678
     10 N         141.6495  139.6872  159.9530 N.ar    1  UNL1       -0.2264
     11 N         144.4888  140.4076  155.6613 N.pl3   1  UNL1       -0.2897
     12 C         145.9539  140.6283  155.8954 C.3     1  UNL1        0.1242
     13 C         146.7299  141.5368  154.9884 C.3     1  UNL1        0.1636
     14 O         146.0407  142.2246  153.8474 O.3     1  UNL1       -0.3502
     15 C         144.5756  142.0039  153.6133 C.3     1  UNL1        0.1618
     16 C         143.7997  141.0955  154.5202 C.3     1  UNL1        0.1038
     17 C         142.3346  140.8748  154.2861 C.3     1  UNL1        0.0241
     18 N         142.6726  135.6770  156.8112 N.pl3   1  UNL1       -0.2753
     19 C         143.4844  134.6608  157.5586 C.3     1  UNL1        0.1109
     20 C         143.3522  133.2039  157.2266 C.3     1  UNL1        0.0939
     21 N         142.4082  132.7633  156.1473 N.3     1  UNL1       -0.2686
     22 C         142.2760  131.3065  155.8153 C.3     1  UNL1        0.0897
     23 C         141.5965  133.7795  155.4000 C.3     1  UNL1        0.0939
     24 C         141.7287  135.2363  155.7320 C.3     1  UNL1        0.1109
     25 C         139.8503  142.7889  164.0018 C.ar    1  UNL1        0.1370
     26 C         141.3423  142.6531  163.9292 C.ar    1  UNL1        0.0367
     27 C         141.9861  142.1048  162.6902 C.ar    1  UNL1        0.0046
     28 C         141.1379  141.6924  161.5239 C.ar    1  UNL1        0.0177
     29 C         139.6458  141.8282  161.5965 C.ar    1  UNL1        0.0027
     30 C         139.0020  142.3765  162.8354 C.ar    1  UNL1        0.0410
     31 C         137.5099  142.5124  162.9079 C.3     1  UNL1        0.1666
     32 O         136.6557  141.2980  163.1214 O.3     1  UNL1       -0.3771
     33 H         136.7281  140.7124  162.3515 H       1  UNL1        0.2109
     34 C         138.8177  144.7844  165.3061 C.3     1  UNL1        0.2525
     35 O         139.2065  143.3372  165.2407 O.3     1  UNL1       -0.4717
@<TRIPOS>BOND
     1    34    35    1
     2    35    25    1
     3    25    26   ar
     4    26    27   ar
     5    27    28   ar
     6    28     1    1
     7     1     2   ar
     8     2     3   ar
     9     3     4   ar
    10     4     5   ar
    11     5    11    1
    12    11    12    1
    13    12    13    1
    14    13    14    1
    15    14    15    1
    16    15    16    1
    17    16    17    1
    18     5     6   ar
    19     6     7   ar
    20     7    18    1
    21    18    19    1
    22    19    20    1
    23    20    21    1
    24    21    22    1
    25    21    23    1
    26    23    24    1
    27     7     8   ar
    28     8     9   ar
    29     9    10   ar
    30    28    29   ar
    31    29    30   ar
    32    30    31    1
    33    31    32    1
    34    30    25   ar
    35    10     1   ar
    36     9     4   ar
    37    16    11    1
    38    24    18    1
    39    32    33    1
@<TRIPOS>MOLECULE
*****
 35 39 0 0 0
SMALL
GASTEIGER

@<TRIPOS>ATOM
      1 C         141.0314  143.6135  159.8161 C.ar    1  UNL1        0.0829
      2 C         140.3638  142.4588  159.1298 C.ar    1  UNL1        0.0193
      3 C         139.6070  142.6805  157.8539 C.ar    1  UNL1        0.0074
      4 C         139.5177  144.0569  157.2643 C.ar    1  UNL1        0.0676
      5 C         138.7608  144.2785  155.9883 C.ar    1  UNL1        0.1376
      6 N         138.6715  145.6549  155.3987 N.ar    1  UNL1       -0.1986
      7 C         139.3391  146.8096  156.0851 C.ar    1  UNL1        0.2227
      8 N         140.0960  146.5879  157.3610 N.ar    1  UNL1       -0.1944
      9 C         140.1853  145.2115  157.9506 C.ar    1  UNL1        0.1678
     10 N         140.9421  144.9898  159.2265 N.ar    1  UNL1       -0.2264
     11 N         138.0932  143.1238  155.3021 N.pl3   1  UNL1       -0.2897
     12 C         136.6701  142.7789  155.6274 C.3     1  UNL1        0.1242
     13 C         136.0025  141.6242  154.9411 C.3     1  UNL1        0.1636
     14 O         136.7580  140.8144  153.9294 O.3     1  UNL1       -0.3502
     15 C         138.1811  141.1594  153.6041 C.3     1  UNL1        0.1618
     16 C         138.8487  142.3140  154.2903 C.3     1  UNL1        0.1038
     17 C         140.2718  142.6590  153.9650 C.3     1  UNL1        0.0241
     18 N         139.2498  148.1860  155.4955 N.pl3   1  UNL1       -0.2753
     19 C         138.5787  149.2877  156.2609 C.3     1  UNL1        0.1109
     20 C         138.4894  150.6641  155.6713 C.3     1  UNL1        0.0939
     21 N         139.0712  150.9387  154.3163 N.3     1  UNL1       -0.2686
     22 C         138.9819  152.3151  153.7266 C.3     1  UNL1        0.0897
     23 C         139.7423  149.8370  153.5509 C.3     1  UNL1        0.0939
     24 C         139.8316  148.4606  154.1405 C.3     1  UNL1        0.1109
     25 C         143.3022  142.9485  163.6439 C.ar    1  UNL1        0.1370
     26 C         142.0882  143.8295  163.6354 C.ar    1  UNL1        0.0367
     27 C         141.3313  144.0512  162.3594 C.ar    1  UNL1        0.0046
     28 C         141.7883  143.3918  161.0921 C.ar    1  UNL1        0.0177
     29 C         143.0023  142.5108  161.1005 C.ar    1  UNL1        0.0027
     30 C         143.7592  142.2891  162.3764 C.ar    1  UNL1        0.0410
     31 C         144.9732  141.4081  162.3849 C.3     1  UNL1        0.1666
     32 O         146.2574  141.9063  162.9787 O.3     1  UNL1       -0.3771
     33 H         146.5953  142.6432  162.4461 H       1  UNL1        0.2109
     34 C         144.7528  143.8758  165.5895 C.3     1  UNL1        0.2525
     35 O         144.0591  142.7268  164.9198 O.3     1  UNL1       -0.4717
@<TRIPOS>BOND
     1    34    35    1
     2    35    25    1
     3    25    26   ar
     4    26    27   ar
     5    27    28   ar
     6    28     1    1
     7     1     2   ar
     8     2     3   ar
     9     3     4   ar
    10     4     5   ar
    11     5    11    1
    12    11    12    1
    13    12    13    1
    14    13    14    1
    15    14    15    1
    16    15    16    1
    17    16    17    1
    18     5     6   ar
    19     6     7   ar
    20     7    18    1
    21    18    19    1
    22    19    20    1
    23    20    21    1
    24    21    22    1
    25    21    23    1
    26    23    24    1
    27     7     8   ar
    28     8     9   ar
    29     9    10   ar
    30    28    29   ar
    31    29    30   ar
    32    30    31    1
    33    31    32    1
    34    30    25   ar
    35    10     1   ar
    36     9     4   ar
    37    16    11    1
    38    24    18    1
    39    32    33    1
@<TRIPOS>MOLECULE
*****
 35 39 0 0 0
SMALL
GASTEIGER

@<TRIPOS>ATOM
      1 C         140.5523  140.6496  163.2177 C.ar    1  UNL1        0.0829
      2 C         140.5524  142.0549  162.6930 C.ar    1  UNL1        0.0193
      3 C         140.7264  142.3072  161.2247 C.ar    1  UNL1        0.0074
      4 C         140.9002  141.1543  160.2810 C.ar    1  UNL1        0.0676
      5 C         141.0741  141.4066  158.8126 C.ar    1  UNL1        0.1376
      6 N         141.2479  140.2537  157.8689 N.ar    1  UNL1       -0.1986
      7 C         141.2478  138.8484  158.3936 C.ar    1  UNL1        0.2227
      8 N         141.0739  138.5961  159.8619 N.ar    1  UNL1       -0.1944
      9 C         140.9001  139.7490  160.8056 C.ar    1  UNL1        0.1678
     10 N         140.7261  139.4967  162.2740 N.ar    1  UNL1       -0.2264
     11 N         141.0742  142.8119  158.2880 N.pl3   1  UNL1       -0.2897
     12 C         142.3568  143.5866  158.2189 C.3     1  UNL1        0.1242
     13 C         142.3569  144.9919  157.6942 C.3     1  UNL1        0.1636
     14 O         141.0744  145.6224  157.2387 O.3     1  UNL1       -0.3502
     15 C         139.7918  144.8477  157.3078 C.3     1  UNL1        0.1618
     16 C         139.7917  143.4425  157.8324 C.3     1  UNL1        0.1038
     17 C         138.5091  142.6678  157.9015 C.3     1  UNL1        0.0241
     18 N         141.4216  137.6955  157.4499 N.pl3   1  UNL1       -0.2753
     19 C         140.3486  137.3748  156.4520 C.3     1  UNL1        0.1109
     20 C         140.5224  136.2219  155.5083 C.3     1  UNL1        0.0939
     21 N         141.7693  135.3897  155.5625 N.3     1  UNL1       -0.2686
     22 C         141.9431  134.2368  154.6188 C.3     1  UNL1        0.0897
     23 C         142.8422  135.7104  156.5604 C.3     1  UNL1        0.0939
     24 C         142.6684  136.8634  157.5041 C.3     1  UNL1        0.1109
     25 C         140.0306  139.8925  167.6228 C.ar    1  UNL1        0.1370
     26 C         138.8861  139.6607  166.6812 C.ar    1  UNL1        0.0367
     27 C         139.0601  139.9131  165.2128 C.ar    1  UNL1        0.0046
     28 C         140.3784  140.3973  164.6861 C.ar    1  UNL1        0.0177
     29 C         141.5228  140.6291  165.6276 C.ar    1  UNL1        0.0027
     30 C         141.3489  140.3768  167.0959 C.ar    1  UNL1        0.0410
     31 C         142.4934  140.6086  168.0375 C.3     1  UNL1        0.1666
     32 O         142.9356  139.5151  168.9641 O.3     1  UNL1       -0.3771
     33 H         142.2321  139.3310  169.6060 H       1  UNL1        0.2109
     34 C         139.2310  140.6880  169.9632 C.3     1  UNL1        0.2525
     35 O         139.8567  139.6402  169.0911 O.3     1  UNL1       -0.4717
@<TRIPOS>BOND
     1    34    35    1
     2    35    25    1
     3    25    26   ar
     4    26    27   ar
     5    27    28   ar
     6    28     1    1
     7     1     2   ar
     8     2     3   ar
     9     3     4   ar
    10     4     5   ar
    11     5    11    1
    12    11    12    1
    13    12    13    1
    14    13    14    1
    15    14    15    1
    16    15    16    1
    17    16    17    1
    18     5     6   ar
    19     6     7   ar
    20     7    18    1
    21    18    19    1
    22    19    20    1
    23    20    21    1
    24    21    22    1
    25    21    23    1
    26    23    24    1
    27     7     8   ar
    28     8     9   ar
    29     9    10   ar
    30    28    29   ar
    31    29    30   ar
    32    30    31    1
    33    31    32    1
    34    30    25   ar
    35    10     1   ar
    36     9     4   ar
    37    16    11    1
    38    24    18    1
    39    32    33    1
@<TRIPOS>MOLECULE
*****
 35 39 0 0 0
SMALL
GASTEIGER

@<TRIPOS>ATOM
      1 C         142.7974  139.4103  161.3606 C.ar    1  UNL1        0.0829
      2 C         142.0438  138.2402  160.8013 C.ar    1  UNL1        0.0193
      3 C         142.1726  137.8904  159.3484 C.ar    1  UNL1        0.0074
      4 C         143.0550  138.7107  158.4548 C.ar    1  UNL1        0.0676
      5 C         143.1838  138.3608  157.0018 C.ar    1  UNL1        0.1376
      6 N         144.0662  139.1811  156.1082 N.ar    1  UNL1       -0.1986
      7 C         144.8198  140.3512  156.6676 C.ar    1  UNL1        0.2227
      8 N         144.6910  140.7011  158.1205 N.ar    1  UNL1       -0.1944
      9 C         143.8086  139.8808  159.0141 C.ar    1  UNL1        0.1678
     10 N         143.6798  140.2306  160.4670 N.ar    1  UNL1       -0.2264
     11 N         142.4302  137.1906  156.4425 N.pl3   1  UNL1       -0.2897
     12 C         143.0138  135.8116  156.5300 C.3     1  UNL1        0.1242
     13 C         142.2601  134.6414  155.9706 C.3     1  UNL1        0.1636
     14 O         140.9230  134.8504  155.3238 O.3     1  UNL1       -0.3502
     15 C         140.3394  136.2294  155.2364 C.3     1  UNL1        0.1618
     16 C         141.0930  137.3995  155.7957 C.3     1  UNL1        0.1038
     17 C         140.5094  138.7786  155.7082 C.3     1  UNL1        0.0241
     18 N         145.7022  141.1715  155.7740 N.pl3   1  UNL1       -0.2753
     19 C         146.6462  142.1746  156.3681 C.3     1  UNL1        0.1109
     20 C         147.5286  142.9949  155.4745 C.3     1  UNL1        0.0939
     21 N         147.4670  142.8121  153.9869 N.3     1  UNL1       -0.2686
     22 C         148.3494  143.6324  153.0933 C.3     1  UNL1        0.0897
     23 C         146.5230  141.8091  153.3929 C.3     1  UNL1        0.0939
     24 C         145.6406  140.9888  154.2865 C.3     1  UNL1        0.1109
     25 C         142.4110  140.4599  165.7195 C.ar    1  UNL1        0.1370
     26 C         141.7682  141.3285  164.6791 C.ar    1  UNL1        0.0367
     27 C         141.8970  140.9786  163.2261 C.ar    1  UNL1        0.0046
     28 C         142.6686  139.7602  162.8136 C.ar    1  UNL1        0.0177
     29 C         143.3114  138.8917  163.8540 C.ar    1  UNL1        0.0027
     30 C         143.1826  139.2415  165.3069 C.ar    1  UNL1        0.0410
     31 C         143.8254  138.3729  166.3473 C.3     1  UNL1        0.1666
     32 O         143.3722  138.4524  167.7750 O.3     1  UNL1       -0.3771
     33 H         143.5906  139.3261  168.1354 H       1  UNL1        0.2109
     34 C         142.8722  142.0875  167.6912 C.3     1  UNL1        0.2525
     35 O         142.2823  140.8098  167.1724 O.3     1  UNL1       -0.4717
@<TRIPOS>BOND
     1    34    35    1
     2    35    25    1
     3    25    26   ar
     4    26    27   ar
     5    27    28   ar
     6    28     1    1
     7     1     2   ar
     8     2     3   ar
     9     3     4   ar
    10     4     5   ar
    11     5    11    1
    12    11    12    1
    13    12    13    1
    14    13    14    1
    15    14    15    1
    16    15    16    1
    17    16    17    1
    18     5     6   ar
    19     6     7   ar
    20     7    18    1
    21    18    19    1
    22    19    20    1
    23    20    21    1
    24    21    22    1
    25    21    23    1
    26    23    24    1
    27     7     8   ar
    28     8     9   ar
    29     9    10   ar
    30    28    29   ar
    31    29    30   ar
    32    30    31    1
    33    31    32    1
    34    30    25   ar
    35    10     1   ar
    36     9     4   ar
    37    16    11    1
    38    24    18    1
    39    32    33    1
