@<TRIPOS>MOLECULE
*****
 26 29 0 0 0
SMALL
GASTEIGER

@<TRIPOS>ATOM
      1 C         141.2958  141.0789  166.9074 C.3     1  UNL1        0.0520
      2 C         143.5337  142.2476  169.9695 C.ar    1  UNL1        0.0204
      3 C         142.6538  143.2985  170.5788 C.ar    1  UNL1        0.0989
      4 N         141.3212  143.6095  169.9644 N.ar    1  UNL1       -0.2426
      5 C         140.8686  142.8697  168.7406 C.ar    1  UNL1        0.0949
      6 C         141.7485  141.8188  168.1313 C.ar    1  UNL1        0.0011
      7 C         143.0810  141.5077  168.7457 C.ar    1  UNL1       -0.0008
      8 C         140.0544  140.2383  166.9555 C.ar    1  UNL1        0.0011
      9 C         139.4757  139.6820  165.6884 C.ar    1  UNL1       -0.0008
     10 C         138.2343  138.8415  165.7365 C.ar    1  UNL1        0.0204
     11 C         137.5715  138.5572  167.0517 C.ar    1  UNL1        0.0989
     12 N         138.1502  139.1135  168.3189 N.ar    1  UNL1       -0.2426
     13 C         139.3916  139.9540  168.2708 C.ar    1  UNL1        0.0949
     14 C         142.0846  141.1795  165.6356 C.3     1  UNL1        0.0352
     15 C         142.5742  142.5154  165.1604 C.ar    1  UNL1       -0.0215
     16 C         143.9658  142.9658  165.4928 C.ar    1  UNL1       -0.0042
     17 C         144.4555  144.3016  165.0177 C.ar    1  UNL1       -0.0003
     18 C         143.5534  145.1871  164.2101 C.ar    1  UNL1       -0.0000
     19 C         142.1618  144.7367  163.8776 C.ar    1  UNL1       -0.0003
     20 C         141.6722  143.4009  164.3528 C.ar    1  UNL1       -0.0038
     21 C         140.2805  142.9505  164.0203 C.ar    1  UNL1        0.0028
     22 C         140.0381  142.0916  162.8148 C.ar    1  UNL1        0.0207
     23 C         138.6465  141.6412  162.4823 C.ar    1  UNL1        0.0989
     24 N         137.4973  142.0498  163.3554 N.ar    1  UNL1       -0.2423
     25 C         137.7397  142.9087  164.5610 C.ar    1  UNL1        0.0989
     26 C         139.1314  143.3591  164.8934 C.ar    1  UNL1        0.0207
@<TRIPOS>BOND
     1     2     3   ar
     2     3     4   ar
     3     4     5   ar
     4     5     6   ar
     5     6     1    1
     6     1    14    1
     7    14    15    1
     8    15    16   ar
     9    16    17   ar
    10    17    18   ar
    11    18    19   ar
    12    19    20   ar
    13    20    21    1
    14    21    22   ar
    15    22    23   ar
    16    23    24   ar
    17    24    25   ar
    18    25    26   ar
    19     1     8    1
    20     8     9   ar
    21     9    10   ar
    22    10    11   ar
    23    11    12   ar
    24    12    13   ar
    25     6     7   ar
    26     7     2   ar
    27    20    15   ar
    28    26    21   ar
    29    13     8   ar
@<TRIPOS>MOLECULE
*****
 26 29 0 0 0
SMALL
GASTEIGER

@<TRIPOS>ATOM
      1 C         141.2999  141.0625  166.9086 C.3     1  UNL1        0.0520
      2 C         138.2310  138.8315  165.7448 C.ar    1  UNL1        0.0204
      3 C         137.5675  138.5534  167.0609 C.ar    1  UNL1        0.0989
      4 N         138.1481  139.1117  168.3263 N.ar    1  UNL1       -0.2426
      5 C         139.3922  139.9480  168.2756 C.ar    1  UNL1        0.0949
      6 C         140.0557  140.2261  166.9594 C.ar    1  UNL1        0.0011
      7 C         139.4751  139.6678  165.6940 C.ar    1  UNL1       -0.0008
      8 C         141.7589  141.7991  168.1320 C.ar    1  UNL1        0.0011
      9 C         143.0919  141.4821  168.7423 C.ar    1  UNL1       -0.0008
     10 C         143.5510  142.2186  169.9657 C.ar    1  UNL1        0.0204
     11 C         142.6770  143.2722  170.5788 C.ar    1  UNL1        0.0989
     12 N         141.3438  143.5893  169.9685 N.ar    1  UNL1       -0.2426
     13 C         140.8848  142.8527  168.7451 C.ar    1  UNL1        0.0949
     14 C         142.0850  141.1623  165.6344 C.3     1  UNL1        0.0352
     15 C         142.5708  142.4982  165.1554 C.ar    1  UNL1       -0.0215
     16 C         143.9615  142.9531  165.4859 C.ar    1  UNL1       -0.0042
     17 C         144.4473  144.2889  165.0070 C.ar    1  UNL1       -0.0003
     18 C         143.5426  145.1699  164.1976 C.ar    1  UNL1       -0.0000
     19 C         142.1519  144.7150  163.8671 C.ar    1  UNL1       -0.0003
     20 C         141.6661  143.3792  164.3460 C.ar    1  UNL1       -0.0038
     21 C         140.2754  142.9243  164.0155 C.ar    1  UNL1        0.0028
     22 C         139.1258  143.3312  164.8889 C.ar    1  UNL1        0.0207
     23 C         137.7352  142.8763  164.5585 C.ar    1  UNL1        0.0989
     24 N         137.4941  142.0146  163.3546 N.ar    1  UNL1       -0.2423
     25 C         138.6437  141.6078  162.4812 C.ar    1  UNL1        0.0989
     26 C         140.0344  142.0626  162.8117 C.ar    1  UNL1        0.0207
@<TRIPOS>BOND
     1     2     3   ar
     2     3     4   ar
     3     4     5   ar
     4     5     6   ar
     5     6     1    1
     6     1    14    1
     7    14    15    1
     8    15    16   ar
     9    16    17   ar
    10    17    18   ar
    11    18    19   ar
    12    19    20   ar
    13    20    21    1
    14    21    22   ar
    15    22    23   ar
    16    23    24   ar
    17    24    25   ar
    18    25    26   ar
    19     1     8    1
    20     8     9   ar
    21     9    10   ar
    22    10    11   ar
    23    11    12   ar
    24    12    13   ar
    25     6     7   ar
    26     7     2   ar
    27    20    15   ar
    28    26    21   ar
    29    13     8   ar
@<TRIPOS>MOLECULE
*****
 26 29 0 0 0
SMALL
GASTEIGER

@<TRIPOS>ATOM
      1 C         141.7483  141.5504  165.3571 C.3     1  UNL1        0.0520
      2 C         138.9958  144.4087  165.4178 C.ar    1  UNL1        0.0204
      3 C         138.3518  144.2107  164.0777 C.ar    1  UNL1        0.0989
      4 N         138.8400  143.1259  163.1640 N.ar    1  UNL1       -0.2426
      5 C         139.9722  142.2391  163.5904 C.ar    1  UNL1        0.0949
      6 C         140.6161  142.4372  164.9306 C.ar    1  UNL1        0.0011
      7 C         140.1279  143.5220  165.8443 C.ar    1  UNL1       -0.0008
      8 C         143.0689  141.6277  164.6500 C.ar    1  UNL1        0.0011
      9 C         144.0140  140.4639  164.6969 C.ar    1  UNL1       -0.0008
     10 C         145.3347  140.5413  163.9898 C.ar    1  UNL1        0.0204
     11 C         145.7101  141.7824  163.2358 C.ar    1  UNL1        0.0989
     12 N         144.7650  142.9463  163.1889 N.ar    1  UNL1       -0.2426
     13 C         143.4443  142.8690  163.8960 C.ar    1  UNL1        0.0949
     14 C         141.5598  140.5863  166.4907 C.3     1  UNL1        0.0352
     15 C         140.2504  139.8742  166.6599 C.ar    1  UNL1       -0.0215
     16 C         139.6636  139.1016  165.5159 C.ar    1  UNL1       -0.0042
     17 C         138.3543  138.3895  165.6850 C.ar    1  UNL1       -0.0003
     18 C         137.6318  138.4501  166.9981 C.ar    1  UNL1       -0.0000
     19 C         138.2186  139.2228  168.1421 C.ar    1  UNL1       -0.0003
     20 C         139.5279  139.9349  167.9729 C.ar    1  UNL1       -0.0038
     21 C         140.1147  140.7076  169.1169 C.ar    1  UNL1        0.0028
     22 C         140.9555  140.0067  170.1425 C.ar    1  UNL1        0.0207
     23 C         141.5423  140.7794  171.2864 C.ar    1  UNL1        0.0989
     24 N         141.2883  142.2529  171.4048 N.ar    1  UNL1       -0.2423
     25 C         140.4475  142.9538  170.3792 C.ar    1  UNL1        0.0989
     26 C         139.8607  142.1811  169.2353 C.ar    1  UNL1        0.0207
@<TRIPOS>BOND
     1     2     3   ar
     2     3     4   ar
     3     4     5   ar
     4     5     6   ar
     5     6     1    1
     6     1    14    1
     7    14    15    1
     8    15    16   ar
     9    16    17   ar
    10    17    18   ar
    11    18    19   ar
    12    19    20   ar
    13    20    21    1
    14    21    22   ar
    15    22    23   ar
    16    23    24   ar
    17    24    25   ar
    18    25    26   ar
    19     1     8    1
    20     8     9   ar
    21     9    10   ar
    22    10    11   ar
    23    11    12   ar
    24    12    13   ar
    25     6     7   ar
    26     7     2   ar
    27    20    15   ar
    28    26    21   ar
    29    13     8   ar
@<TRIPOS>MOLECULE
*****
 26 29 0 0 0
SMALL
GASTEIGER

@<TRIPOS>ATOM
      1 C         141.7510  141.6233  165.3883 C.3     1  UNL1        0.0520
      2 C         145.2760  140.5058  163.9476 C.ar    1  UNL1        0.0204
      3 C         145.7351  141.7795  163.3020 C.ar    1  UNL1        0.0989
      4 N         144.8661  143.0012  163.3518 N.ar    1  UNL1       -0.2426
      5 C         143.5381  142.9491  164.0472 C.ar    1  UNL1        0.0949
      6 C         143.0791  141.6754  164.6928 C.ar    1  UNL1        0.0011
      7 C         143.9480  140.4537  164.6430 C.ar    1  UNL1       -0.0008
      8 C         140.6315  142.5127  164.9348 C.ar    1  UNL1        0.0011
      9 C         140.0510  143.5266  165.8755 C.ar    1  UNL1       -0.0008
     10 C         138.9315  144.4160  165.4219 C.ar    1  UNL1        0.0204
     11 C         138.3925  144.2915  164.0277 C.ar    1  UNL1        0.0989
     12 N         138.9730  143.2775  163.0869 N.ar    1  UNL1       -0.2426
     13 C         140.0925  142.3881  163.5404 C.ar    1  UNL1        0.0949
     14 C         141.5425  140.6818  166.5372 C.3     1  UNL1        0.0352
     15 C         140.2470  139.9375  166.6714 C.ar    1  UNL1       -0.0215
     16 C         139.6890  139.1860  165.4994 C.ar    1  UNL1       -0.0042
     17 C         138.3936  138.4417  165.6336 C.ar    1  UNL1       -0.0003
     18 C         137.6562  138.4491  166.9398 C.ar    1  UNL1       -0.0000
     19 C         138.2143  139.2007  168.1118 C.ar    1  UNL1       -0.0003
     20 C         139.5097  139.9449  167.9777 C.ar    1  UNL1       -0.0038
     21 C         140.0677  140.6965  169.1497 C.ar    1  UNL1        0.0028
     22 C         140.9980  140.0111  170.1061 C.ar    1  UNL1        0.0207
     23 C         141.5561  140.7627  171.2782 C.ar    1  UNL1        0.0989
     24 N         141.1838  142.1997  171.4938 N.ar    1  UNL1       -0.2423
     25 C         140.2536  142.8850  170.5374 C.ar    1  UNL1        0.0989
     26 C         139.6955  142.1335  169.3653 C.ar    1  UNL1        0.0207
@<TRIPOS>BOND
     1     2     3   ar
     2     3     4   ar
     3     4     5   ar
     4     5     6   ar
     5     6     1    1
     6     1    14    1
     7    14    15    1
     8    15    16   ar
     9    16    17   ar
    10    17    18   ar
    11    18    19   ar
    12    19    20   ar
    13    20    21    1
    14    21    22   ar
    15    22    23   ar
    16    23    24   ar
    17    24    25   ar
    18    25    26   ar
    19     1     8    1
    20     8     9   ar
    21     9    10   ar
    22    10    11   ar
    23    11    12   ar
    24    12    13   ar
    25     6     7   ar
    26     7     2   ar
    27    20    15   ar
    28    26    21   ar
    29    13     8   ar
@<TRIPOS>MOLECULE
*****
 26 29 0 0 0
SMALL
GASTEIGER

@<TRIPOS>ATOM
      1 C         139.9152  141.0875  165.9511 C.3     1  UNL1        0.0520
      2 C         138.6804  137.3718  165.3039 C.ar    1  UNL1        0.0204
      3 C         137.7706  137.1668  166.4786 C.ar    1  UNL1        0.0989
      4 N         137.5756  138.2686  167.4776 N.ar    1  UNL1       -0.2426
      5 C         138.2905  139.5755  167.3018 C.ar    1  UNL1        0.0949
      6 C         139.2003  139.7806  166.1270 C.ar    1  UNL1        0.0011
      7 C         139.3952  138.6787  165.1280 C.ar    1  UNL1       -0.0008
      8 C         139.2638  142.2018  165.1868 C.ar    1  UNL1        0.0011
      9 C         139.6072  143.6277  165.5010 C.ar    1  UNL1       -0.0008
     10 C         138.9558  144.7419  164.7368 C.ar    1  UNL1        0.0204
     11 C         137.9610  144.4303  163.6583 C.ar    1  UNL1        0.0989
     12 N         137.6176  143.0043  163.3440 N.ar    1  UNL1       -0.2426
     13 C         138.2690  141.8900  164.1083 C.ar    1  UNL1        0.0949
     14 C         141.2814  141.2801  166.5396 C.3     1  UNL1        0.0352
     15 C         142.4368  140.4672  166.0351 C.ar    1  UNL1       -0.0215
     16 C         142.8111  139.1882  166.7235 C.ar    1  UNL1       -0.0042
     17 C         143.9664  138.3752  166.2191 C.ar    1  UNL1       -0.0003
     18 C         144.7473  138.8414  165.0263 C.ar    1  UNL1       -0.0000
     19 C         144.3730  140.1204  164.3379 C.ar    1  UNL1       -0.0003
     20 C         143.2177  140.9334  164.8423 C.ar    1  UNL1       -0.0038
     21 C         142.8434  142.2124  164.1539 C.ar    1  UNL1        0.0028
     22 C         141.9600  142.1812  162.9421 C.ar    1  UNL1        0.0207
     23 C         141.5856  143.4603  162.2537 C.ar    1  UNL1        0.0989
     24 N         142.0948  144.7705  162.7771 N.ar    1  UNL1       -0.2423
     25 C         142.9782  144.8017  163.9889 C.ar    1  UNL1        0.0989
     26 C         143.3525  143.5227  164.6773 C.ar    1  UNL1        0.0207
@<TRIPOS>BOND
     1     2     3   ar
     2     3     4   ar
     3     4     5   ar
     4     5     6   ar
     5     6     1    1
     6     1    14    1
     7    14    15    1
     8    15    16   ar
     9    16    17   ar
    10    17    18   ar
    11    18    19   ar
    12    19    20   ar
    13    20    21    1
    14    21    22   ar
    15    22    23   ar
    16    23    24   ar
    17    24    25   ar
    18    25    26   ar
    19     1     8    1
    20     8     9   ar
    21     9    10   ar
    22    10    11   ar
    23    11    12   ar
    24    12    13   ar
    25     6     7   ar
    26     7     2   ar
    27    20    15   ar
    28    26    21   ar
    29    13     8   ar
@<TRIPOS>MOLECULE
*****
 26 29 0 0 0
SMALL
GASTEIGER

@<TRIPOS>ATOM
      1 C         141.2809  143.2418  164.2599 C.3     1  UNL1        0.0520
      2 C         145.1440  142.3857  164.5666 C.ar    1  UNL1        0.0204
      3 C         145.1648  140.9791  164.0462 C.ar    1  UNL1        0.0989
      4 N         143.8910  140.3267  163.5970 N.ar    1  UNL1       -0.2426
      5 C         142.5964  141.0809  163.6682 C.ar    1  UNL1        0.0949
      6 C         142.5756  142.4875  164.1887 C.ar    1  UNL1        0.0011
      7 C         143.8494  143.1399  164.6379 C.ar    1  UNL1       -0.0008
      8 C         140.8404  144.0865  163.1013 C.ar    1  UNL1        0.0011
      9 C         141.6912  144.1718  161.8690 C.ar    1  UNL1       -0.0008
     10 C         141.2507  145.0166  160.7104 C.ar    1  UNL1        0.0204
     11 C         139.9593  145.7761  160.7842 C.ar    1  UNL1        0.0989
     12 N         139.1084  145.6909  162.0166 N.ar    1  UNL1       -0.2426
     13 C         139.5489  144.8461  163.1752 C.ar    1  UNL1        0.0949
     14 C         140.4269  143.1513  165.4897 C.3     1  UNL1        0.0352
     15 C         139.7764  141.8505  165.8570 C.ar    1  UNL1       -0.0215
     16 C         138.8291  141.1892  164.9003 C.ar    1  UNL1       -0.0042
     17 C         138.1786  139.8885  165.2675 C.ar    1  UNL1       -0.0003
     18 C         138.4754  139.2490  166.5915 C.ar    1  UNL1       -0.0000
     19 C         139.4226  139.9103  167.5482 C.ar    1  UNL1       -0.0003
     20 C         140.0732  141.2110  167.1810 C.ar    1  UNL1       -0.0038
     21 C         141.0205  141.8723  168.1377 C.ar    1  UNL1        0.0028
     22 C         142.4914  141.5916  168.0512 C.ar    1  UNL1        0.0207
     23 C         143.4387  142.2528  169.0080 C.ar    1  UNL1        0.0989
     24 N         142.9150  143.1949  170.0512 N.ar    1  UNL1       -0.2423
     25 C         141.4441  143.4756  170.1377 C.ar    1  UNL1        0.0989
     26 C         140.4968  142.8143  169.1809 C.ar    1  UNL1        0.0207
@<TRIPOS>BOND
     1     2     3   ar
     2     3     4   ar
     3     4     5   ar
     4     5     6   ar
     5     6     1    1
     6     1    14    1
     7    14    15    1
     8    15    16   ar
     9    16    17   ar
    10    17    18   ar
    11    18    19   ar
    12    19    20   ar
    13    20    21    1
    14    21    22   ar
    15    22    23   ar
    16    23    24   ar
    17    24    25   ar
    18    25    26   ar
    19     1     8    1
    20     8     9   ar
    21     9    10   ar
    22    10    11   ar
    23    11    12   ar
    24    12    13   ar
    25     6     7   ar
    26     7     2   ar
    27    20    15   ar
    28    26    21   ar
    29    13     8   ar
@<TRIPOS>MOLECULE
*****
 26 29 0 0 0
SMALL
GASTEIGER

@<TRIPOS>ATOM
      1 C         141.2769  143.2512  164.2525 C.3     1  UNL1        0.0520
      2 C         141.2567  145.0113  160.6957 C.ar    1  UNL1        0.0204
      3 C         139.9645  145.7701  160.7622 C.ar    1  UNL1        0.0989
      4 N         139.1097  145.6892  161.9922 N.ar    1  UNL1       -0.2426
      5 C         139.5472  144.8496  163.1556 C.ar    1  UNL1        0.0949
      6 C         140.8394  144.0908  163.0891 C.ar    1  UNL1        0.0011
      7 C         141.6941  144.1717  161.8591 C.ar    1  UNL1       -0.0008
      8 C         142.5732  142.4992  164.1893 C.ar    1  UNL1        0.0011
      9 C         143.8447  143.1575  164.6364 C.ar    1  UNL1       -0.0008
     10 C         145.1411  142.4056  164.5732 C.ar    1  UNL1        0.0204
     11 C         145.1660  140.9953  164.0628 C.ar    1  UNL1        0.0989
     12 N         143.8945  140.3369  163.6157 N.ar    1  UNL1       -0.2426
     13 C         142.5981  141.0889  163.6789 C.ar    1  UNL1        0.0949
     14 C         140.4180  143.1634  165.4792 C.3     1  UNL1        0.0352
     15 C         139.7646  141.8639  165.8459 C.ar    1  UNL1       -0.0215
     16 C         138.8113  141.2082  164.8913 C.ar    1  UNL1       -0.0042
     17 C         138.1578  139.9088  165.2580 C.ar    1  UNL1       -0.0003
     18 C         138.4577  139.2651  166.5792 C.ar    1  UNL1       -0.0000
     19 C         139.4110  139.9209  167.5338 C.ar    1  UNL1       -0.0003
     20 C         140.0645  141.2203  167.1671 C.ar    1  UNL1       -0.0038
     21 C         141.0178  141.8760  168.1217 C.ar    1  UNL1        0.0028
     22 C         142.4872  141.5889  168.0300 C.ar    1  UNL1        0.0207
     23 C         143.4405  142.2447  168.9845 C.ar    1  UNL1        0.0989
     24 N         142.9244  143.1875  170.0308 N.ar    1  UNL1       -0.2423
     25 C         141.4550  143.4746  170.1225 C.ar    1  UNL1        0.0989
     26 C         140.5017  142.8188  169.1679 C.ar    1  UNL1        0.0207
@<TRIPOS>BOND
     1     2     3   ar
     2     3     4   ar
     3     4     5   ar
     4     5     6   ar
     5     6     1    1
     6     1    14    1
     7    14    15    1
     8    15    16   ar
     9    16    17   ar
    10    17    18   ar
    11    18    19   ar
    12    19    20   ar
    13    20    21    1
    14    21    22   ar
    15    22    23   ar
    16    23    24   ar
    17    24    25   ar
    18    25    26   ar
    19     1     8    1
    20     8     9   ar
    21     9    10   ar
    22    10    11   ar
    23    11    12   ar
    24    12    13   ar
    25     6     7   ar
    26     7     2   ar
    27    20    15   ar
    28    26    21   ar
    29    13     8   ar
@<TRIPOS>MOLECULE
*****
 26 29 0 0 0
SMALL
GASTEIGER

@<TRIPOS>ATOM
      1 C         139.8840  141.1053  165.8021 C.3     1  UNL1        0.0520
      2 C         138.7704  144.7185  164.5959 C.ar    1  UNL1        0.0204
      3 C         137.8276  144.3679  163.4833 C.ar    1  UNL1        0.0989
      4 N         137.5703  142.9297  163.1436 N.ar    1  UNL1       -0.2426
      5 C         138.2557  141.8422  163.9165 C.ar    1  UNL1        0.0949
      6 C         139.1985  142.1929  165.0291 C.ar    1  UNL1        0.0011
      7 C         139.4559  143.6310  165.3689 C.ar    1  UNL1       -0.0008
      8 C         139.2019  139.7848  166.0046 C.ar    1  UNL1        0.0011
      9 C         139.4440  138.6602  165.0421 C.ar    1  UNL1       -0.0008
     10 C         138.7619  137.3397  165.2446 C.ar    1  UNL1        0.0204
     11 C         137.8377  137.1438  166.4096 C.ar    1  UNL1        0.0989
     12 N         137.5956  138.2685  167.3722 N.ar    1  UNL1       -0.2426
     13 C         138.2777  139.5890  167.1698 C.ar    1  UNL1        0.0949
     14 C         141.2516  141.3383  166.3726 C.3     1  UNL1        0.0352
     15 C         142.4284  140.5807  165.8330 C.ar    1  UNL1       -0.0215
     16 C         142.8648  139.3052  166.4907 C.ar    1  UNL1       -0.0042
     17 C         144.0416  138.5475  165.9512 C.ar    1  UNL1       -0.0003
     18 C         144.7820  139.0654  164.7539 C.ar    1  UNL1       -0.0000
     19 C         144.3456  140.3409  164.0961 C.ar    1  UNL1       -0.0003
     20 C         143.1688  141.0986  164.6356 C.ar    1  UNL1       -0.0038
     21 C         142.7325  142.3741  163.9779 C.ar    1  UNL1        0.0028
     22 C         143.1728  143.6947  164.5363 C.ar    1  UNL1        0.0207
     23 C         142.7365  144.9702  163.8786 C.ar    1  UNL1        0.0989
     24 N         141.8597  144.9251  162.6624 N.ar    1  UNL1       -0.2423
     25 C         141.4193  143.6044  162.1039 C.ar    1  UNL1        0.0989
     26 C         141.8557  142.3289  162.7617 C.ar    1  UNL1        0.0207
@<TRIPOS>BOND
     1     2     3   ar
     2     3     4   ar
     3     4     5   ar
     4     5     6   ar
     5     6     1    1
     6     1    14    1
     7    14    15    1
     8    15    16   ar
     9    16    17   ar
    10    17    18   ar
    11    18    19   ar
    12    19    20   ar
    13    20    21    1
    14    21    22   ar
    15    22    23   ar
    16    23    24   ar
    17    24    25   ar
    18    25    26   ar
    19     1     8    1
    20     8     9   ar
    21     9    10   ar
    22    10    11   ar
    23    11    12   ar
    24    12    13   ar
    25     6     7   ar
    26     7     2   ar
    27    20    15   ar
    28    26    21   ar
    29    13     8   ar
@<TRIPOS>MOLECULE
*****
 26 29 0 0 0
SMALL
GASTEIGER

@<TRIPOS>ATOM
      1 C         141.7620  141.7619  166.2881 C.3     1  UNL1        0.0520
      2 C         144.7263  140.3129  164.0828 C.ar    1  UNL1        0.0204
      3 C         145.2124  141.5603  163.4064 C.ar    1  UNL1        0.0989
      4 N         144.5484  142.8750  163.6907 N.ar    1  UNL1       -0.2426
      5 C         143.3983  142.9422  164.6512 C.ar    1  UNL1        0.0949
      6 C         142.9122  141.6948  165.3275 C.ar    1  UNL1        0.0011
      7 C         143.5762  140.3801  165.0433 C.ar    1  UNL1       -0.0008
      8 C         141.9792  142.2661  167.6841 C.ar    1  UNL1        0.0011
      9 C         140.8220  142.7934  168.4796 C.ar    1  UNL1       -0.0008
     10 C         141.0392  143.2975  169.8755 C.ar    1  UNL1        0.0204
     11 C         142.4136  143.2744  170.4760 C.ar    1  UNL1        0.0989
     12 N         143.5709  142.7471  169.6804 N.ar    1  UNL1       -0.2426
     13 C         143.3537  142.2429  168.2845 C.ar    1  UNL1        0.0949
     14 C         140.3947  141.3250  165.8528 C.3     1  UNL1        0.0352
     15 C         139.5956  142.1830  164.9172 C.ar    1  UNL1       -0.0215
     16 C         139.2146  143.5771  165.3186 C.ar    1  UNL1       -0.0042
     17 C         138.4155  144.4351  164.3831 C.ar    1  UNL1       -0.0003
     18 C         137.9975  143.8989  163.0461 C.ar    1  UNL1       -0.0000
     19 C         138.3785  142.5048  162.6446 C.ar    1  UNL1       -0.0003
     20 C         139.1775  141.6468  163.5801 C.ar    1  UNL1       -0.0038
     21 C         139.5585  140.2526  163.1786 C.ar    1  UNL1        0.0028
     22 C         140.8694  140.0010  162.4944 C.ar    1  UNL1        0.0207
     23 C         141.2504  138.6068  162.0929 C.ar    1  UNL1        0.0989
     24 N         140.3205  137.4643  162.3757 N.ar    1  UNL1       -0.2423
     25 C         139.0096  137.7160  163.0599 C.ar    1  UNL1        0.0989
     26 C         138.6287  139.1102  163.4614 C.ar    1  UNL1        0.0207
@<TRIPOS>BOND
     1     2     3   ar
     2     3     4   ar
     3     4     5   ar
     4     5     6   ar
     5     6     1    1
     6     1    14    1
     7    14    15    1
     8    15    16   ar
     9    16    17   ar
    10    17    18   ar
    11    18    19   ar
    12    19    20   ar
    13    20    21    1
    14    21    22   ar
    15    22    23   ar
    16    23    24   ar
    17    24    25   ar
    18    25    26   ar
    19     1     8    1
    20     8     9   ar
    21     9    10   ar
    22    10    11   ar
    23    11    12   ar
    24    12    13   ar
    25     6     7   ar
    26     7     2   ar
    27    20    15   ar
    28    26    21   ar
    29    13     8   ar
