@<TRIPOS>MOLECULE
*****
 33 37 0 0 0
SMALL
GASTEIGER

@<TRIPOS>ATOM
      1 C         140.7983  145.0688  160.9413 C.3     1  UNL1        0.1700
      2 O         141.8737  145.5392  160.0073 O.3     1  UNL1       -0.3793
      3 H         141.7706  145.1006  159.1483 H       1  UNL1        0.2106
      4 C         139.7849  144.0664  160.4740 C.3     1  UNL1        0.2358
      5 O         140.0150  142.6027  160.7072 O.3     1  UNL1       -0.4714
      6 O         143.6825  139.1422  162.6628 O.2     1  UNL1       -0.2707
      7 C         142.2752  139.4927  163.0459 C.2     1  UNL1        0.2708
      8 C         141.6214  138.8067  164.2085 C.3     1  UNL1        0.2897
      9 O         140.2141  139.1572  164.5916 O.3     1  UNL1       -0.4642
     10 C         139.4607  140.1938  163.8120 C.ar    1  UNL1        0.1556
     11 C         138.0534  140.5444  164.1951 C.ar    1  UNL1        0.0384
     12 C         137.3000  141.5810  163.4156 C.ar    1  UNL1        0.0063
     13 C         137.9539  142.2671  162.2529 C.ar    1  UNL1        0.0384
     14 C         139.3611  141.9166  161.8698 C.ar    1  UNL1        0.1550
     15 C         140.1145  140.8799  162.6494 C.ar    1  UNL1        0.1192
     16 N         141.5218  140.5294  162.2663 N.am    1  UNL1       -0.2761
     17 H         141.9509  140.9797  161.5032 H       1  UNL1        0.1551
     18 C         140.7364  145.6006  162.3424 C.3     1  UNL1        0.1056
     19 N         140.8299  144.6595  163.5067 N.3     1  UNL1       -0.2703
     20 C         139.6823  144.5350  164.4645 C.3     1  UNL1        0.0758
     21 C         139.7758  143.5938  165.6288 C.3     1  UNL1        0.0577
     22 C         141.0170  142.7772  165.8352 C.3     1  UNL1        0.1399
     23 C         142.1646  142.9017  164.8774 C.3     1  UNL1        0.0577
     24 C         142.0711  143.8429  163.7132 C.3     1  UNL1        0.0758
     25 C         142.1878  141.9008  166.1686 C.3     1  UNL1        0.0695
     26 C         141.8506  141.1291  167.4100 C.ar    1  UNL1        0.0161
     27 C         142.6211  140.1143  168.2014 C.ar    1  UNL1        0.0102
     28 C         142.0125  139.4991  169.4266 C.ar    1  UNL1        0.0576
     29 CL        142.7831  138.4843  170.2179 Cl      1  UNL1       -0.0823
     30 C         140.6334  139.8986  169.8604 C.ar    1  UNL1        0.0145
     31 C         139.8627  140.9135  169.0690 C.ar    1  UNL1        0.0374
     32 C         140.4713  141.5287  167.8438 C.ar    1  UNL1        0.1343
     33 O         139.9562  142.5473  166.8706 O.3     1  UNL1       -0.4825
@<TRIPOS>BOND
     1     6     7    2
     2     7     8    1
     3     8     9    1
     4     9    10    1
     5    10    11   ar
     6    11    12   ar
     7    12    13   ar
     8    13    14   ar
     9    14     5    1
    10     5     4    1
    11     4     1    1
    12     1     2    1
    13     1    18    1
    14    18    19    1
    15    19    20    1
    16    20    21    1
    17    21    22    1
    18    22    23    1
    19    23    24    1
    20    22    25    1
    21    25    26    1
    22    26    27   ar
    23    27    28   ar
    24    28    29    1
    25    28    30   ar
    26    30    31   ar
    27    31    32   ar
    28    32    33    1
    29    14    15   ar
    30    15    16    1
    31    16     7   am
    32    15    10   ar
    33    24    19    1
    34    32    26   ar
    35    33    22    1
    36     2     3    1
    37    16    17    1
@<TRIPOS>MOLECULE
*****
 33 37 0 0 0
SMALL
GASTEIGER

@<TRIPOS>ATOM
      1 C         141.4247  144.2277  159.9704 C.3     1  UNL1        0.1700
      2 O         141.6091  145.6911  159.6972 O.3     1  UNL1       -0.3793
      3 H         140.7699  146.0717  159.3942 H       1  UNL1        0.2106
      4 C         140.0839  143.5887  159.7604 C.3     1  UNL1        0.2358
      5 O         138.9334  143.9486  160.6530 O.3     1  UNL1       -0.4714
      6 O         137.7321  138.8129  161.8493 O.2     1  UNL1       -0.2707
      7 C         138.1362  140.0041  162.6666 C.2     1  UNL1        0.2708
      8 C         138.2745  139.8803  164.1550 C.3     1  UNL1        0.2897
      9 O         138.6785  141.0715  164.9723 O.3     1  UNL1       -0.4642
     10 C         138.9443  142.3863  164.3011 C.ar    1  UNL1        0.1556
     11 C         139.3484  143.5774  165.1184 C.ar    1  UNL1        0.0384
     12 C         139.6141  144.8923  164.4473 C.ar    1  UNL1        0.0063
     13 C         139.4758  145.0161  162.9587 C.ar    1  UNL1        0.0384
     14 C         139.0718  143.8249  162.1414 C.ar    1  UNL1        0.1550
     15 C         138.8060  142.5100  162.8127 C.ar    1  UNL1        0.1192
     16 N         138.4019  141.3189  161.9954 N.am    1  UNL1       -0.2761
     17 H         138.3112  141.4001  161.0185 H       1  UNL1        0.1551
     18 C         142.5810  143.4035  160.4537 C.3     1  UNL1        0.1056
     19 N         142.6276  142.9399  161.8795 N.3     1  UNL1       -0.2703
     20 C         142.9872  143.9046  162.9704 C.3     1  UNL1        0.0758
     21 C         143.0338  143.4410  164.3962 C.3     1  UNL1        0.0577
     22 C         142.7207  142.0127  164.7311 C.3     1  UNL1        0.1399
     23 C         142.3611  141.0481  163.6402 C.3     1  UNL1        0.0577
     24 C         142.3146  141.5117  162.2144 C.3     1  UNL1        0.0758
     25 C         142.4340  140.6226  165.2160 C.3     1  UNL1        0.0695
     26 C         142.5983  140.6086  166.7070 C.ar    1  UNL1        0.0161
     27 C         142.4445  139.5164  167.7236 C.ar    1  UNL1        0.0102
     28 C         142.6790  139.8057  169.1766 C.ar    1  UNL1        0.0576
     29 CL        142.5252  138.7135  170.1931 Cl      1  UNL1       -0.0823
     30 C         143.0673  141.1872  169.6131 C.ar    1  UNL1        0.0145
     31 C         143.2211  142.2795  168.5965 C.ar    1  UNL1        0.0374
     32 C         142.9866  141.9902  167.1435 C.ar    1  UNL1        0.1343
     33 O         143.0623  142.8580  165.9224 O.3     1  UNL1       -0.4825
@<TRIPOS>BOND
     1     6     7    2
     2     7     8    1
     3     8     9    1
     4     9    10    1
     5    10    11   ar
     6    11    12   ar
     7    12    13   ar
     8    13    14   ar
     9    14     5    1
    10     5     4    1
    11     4     1    1
    12     1     2    1
    13     1    18    1
    14    18    19    1
    15    19    20    1
    16    20    21    1
    17    21    22    1
    18    22    23    1
    19    23    24    1
    20    22    25    1
    21    25    26    1
    22    26    27   ar
    23    27    28   ar
    24    28    29    1
    25    28    30   ar
    26    30    31   ar
    27    31    32   ar
    28    32    33    1
    29    14    15   ar
    30    15    16    1
    31    16     7   am
    32    15    10   ar
    33    24    19    1
    34    32    26   ar
    35    33    22    1
    36     2     3    1
    37    16    17    1
@<TRIPOS>MOLECULE
*****
 33 37 0 0 0
SMALL
GASTEIGER

@<TRIPOS>ATOM
      1 C         141.7196  144.0498  160.1117 C.3     1  UNL1        0.1700
      2 O         141.7853  145.5225  159.8345 O.3     1  UNL1       -0.3793
      3 H         142.6476  145.7405  159.4474 H       1  UNL1        0.2106
      4 C         142.8915  143.1722  159.7853 C.3     1  UNL1        0.2358
      5 O         144.1534  143.2762  160.5895 O.3     1  UNL1       -0.4714
      6 O         144.0257  138.0306  161.9002 O.2     1  UNL1       -0.2707
      7 C         144.0136  139.3021  162.6960 C.2     1  UNL1        0.2708
      8 C         143.9548  139.2489  164.1938 C.3     1  UNL1        0.2897
      9 O         143.9426  140.5204  164.9896 O.3     1  UNL1       -0.4642
     10 C         143.9892  141.8450  164.2875 C.ar    1  UNL1        0.1556
     11 C         143.9770  143.1165  165.0832 C.ar    1  UNL1        0.0384
     12 C         144.0236  144.4412  164.3811 C.ar    1  UNL1        0.0063
     13 C         144.0824  144.4944  162.8832 C.ar    1  UNL1        0.0384
     14 C         144.0946  143.2230  162.0874 C.ar    1  UNL1        0.1550
     15 C         144.0480  141.8983  162.7896 C.ar    1  UNL1        0.1192
     16 N         144.0602  140.6268  161.9939 N.am    1  UNL1       -0.2761
     17 H         144.0988  140.6617  161.0107 H       1  UNL1        0.1551
     18 C         140.4821  143.4547  160.7153 C.3     1  UNL1        0.1056
     19 N         140.4375  143.1447  162.1823 N.3     1  UNL1       -0.2703
     20 C         140.4499  144.2601  163.1852 C.3     1  UNL1        0.0758
     21 C         140.4053  143.9501  164.6521 C.3     1  UNL1        0.0577
     22 C         140.3484  142.5248  165.1161 C.3     1  UNL1        0.1399
     23 C         140.3360  141.4095  164.1132 C.3     1  UNL1        0.0577
     24 C         140.3806  141.7195  162.6463 C.3     1  UNL1        0.0758
     25 C         140.2898  141.1559  165.7266 C.3     1  UNL1        0.0695
     26 C         140.2598  141.3144  167.2180 C.ar    1  UNL1        0.0161
     27 C         140.2012  140.3126  168.3328 C.ar    1  UNL1        0.0102
     28 C         140.1826  140.7776  169.7588 C.ar    1  UNL1        0.0576
     29 CL        140.1240  139.7757  170.8737 Cl      1  UNL1       -0.0823
     30 C         140.2226  142.2443  170.0700 C.ar    1  UNL1        0.0145
     31 C         140.2812  143.2463  168.9551 C.ar    1  UNL1        0.0374
     32 C         140.2998  142.7813  167.5291 C.ar    1  UNL1        0.1343
     33 O         140.3545  143.5293  166.2302 O.3     1  UNL1       -0.4825
@<TRIPOS>BOND
     1     6     7    2
     2     7     8    1
     3     8     9    1
     4     9    10    1
     5    10    11   ar
     6    11    12   ar
     7    12    13   ar
     8    13    14   ar
     9    14     5    1
    10     5     4    1
    11     4     1    1
    12     1     2    1
    13     1    18    1
    14    18    19    1
    15    19    20    1
    16    20    21    1
    17    21    22    1
    18    22    23    1
    19    23    24    1
    20    22    25    1
    21    25    26    1
    22    26    27   ar
    23    27    28   ar
    24    28    29    1
    25    28    30   ar
    26    30    31   ar
    27    31    32   ar
    28    32    33    1
    29    14    15   ar
    30    15    16    1
    31    16     7   am
    32    15    10   ar
    33    24    19    1
    34    32    26   ar
    35    33    22    1
    36     2     3    1
    37    16    17    1
@<TRIPOS>MOLECULE
*****
 33 37 0 0 0
SMALL
GASTEIGER

@<TRIPOS>ATOM
      1 C         138.8074  138.6888  160.9684 C.3     1  UNL1        0.1700
      2 O         139.7157  138.5256  159.7859 O.3     1  UNL1       -0.3793
      3 H         139.4243  139.1128  159.0709 H       1  UNL1        0.2106
      4 C         137.6611  139.6544  160.9060 C.3     1  UNL1        0.2358
      5 O         137.9249  141.1226  160.7488 O.3     1  UNL1       -0.4714
      6 O         140.5742  145.5455  159.1152 O.2     1  UNL1       -0.2707
      7 C         140.0205  145.0923  160.4335 C.2     1  UNL1        0.2708
      8 C         140.1653  145.9623  161.6468 C.3     1  UNL1        0.2897
      9 O         139.6117  145.5092  162.9651 O.3     1  UNL1       -0.4642
     10 C         138.9131  144.1859  163.0702 C.ar    1  UNL1        0.1556
     11 C         138.3595  143.7328  164.3886 C.ar    1  UNL1        0.0384
     12 C         137.6609  142.4095  164.4937 C.ar    1  UNL1        0.0063
     13 C         137.5160  141.5394  163.2804 C.ar    1  UNL1        0.0384
     14 C         138.0697  141.9926  161.9621 C.ar    1  UNL1        0.1550
     15 C         138.7683  143.3159  161.8570 C.ar    1  UNL1        0.1192
     16 N         139.3220  143.7691  160.5386 N.am    1  UNL1       -0.2761
     17 H         139.2269  143.1980  159.7423 H       1  UNL1        0.1551
     18 C         139.0452  137.8865  162.2133 C.3     1  UNL1        0.1056
     19 N         139.4052  138.5788  163.4944 N.3     1  UNL1       -0.2703
     20 C         138.5712  138.3645  164.7226 C.3     1  UNL1        0.0758
     21 C         138.9311  139.0568  166.0037 C.3     1  UNL1        0.0577
     22 C         140.1250  139.9633  166.0566 C.3     1  UNL1        0.1399
     23 C         140.9590  140.1775  164.8284 C.3     1  UNL1        0.0577
     24 C         140.5991  139.4853  163.5473 C.3     1  UNL1        0.0758
     25 C         141.2838  140.8937  166.2606 C.3     1  UNL1        0.0695
     26 C         141.2643  141.3521  167.6888 C.ar    1  UNL1        0.0161
     27 C         142.1614  142.2752  168.4589 C.ar    1  UNL1        0.0102
     28 C         141.8877  142.5511  169.9077 C.ar    1  UNL1        0.0576
     29 CL        142.7847  143.4742  170.6779 Cl      1  UNL1       -0.0823
     30 C         140.7169  141.9041  170.5863 C.ar    1  UNL1        0.0145
     31 C         139.8197  140.9810  169.8161 C.ar    1  UNL1        0.0374
     32 C         140.0934  140.7050  168.3674 C.ar    1  UNL1        0.1343
     33 O         139.3893  139.8467  167.3586 O.3     1  UNL1       -0.4825
@<TRIPOS>BOND
     1     6     7    2
     2     7     8    1
     3     8     9    1
     4     9    10    1
     5    10    11   ar
     6    11    12   ar
     7    12    13   ar
     8    13    14   ar
     9    14     5    1
    10     5     4    1
    11     4     1    1
    12     1     2    1
    13     1    18    1
    14    18    19    1
    15    19    20    1
    16    20    21    1
    17    21    22    1
    18    22    23    1
    19    23    24    1
    20    22    25    1
    21    25    26    1
    22    26    27   ar
    23    27    28   ar
    24    28    29    1
    25    28    30   ar
    26    30    31   ar
    27    31    32   ar
    28    32    33    1
    29    14    15   ar
    30    15    16    1
    31    16     7   am
    32    15    10   ar
    33    24    19    1
    34    32    26   ar
    35    33    22    1
    36     2     3    1
    37    16    17    1
@<TRIPOS>MOLECULE
*****
 33 37 0 0 0
SMALL
GASTEIGER

@<TRIPOS>ATOM
      1 C         143.1827  138.4546  161.2026 C.3     1  UNL1        0.1700
      2 O         143.6752  137.0699  160.9027 O.3     1  UNL1       -0.3793
      3 H         143.0655  136.6366  160.2851 H       1  UNL1        0.2106
      4 C         141.9196  138.9555  160.5671 C.3     1  UNL1        0.2358
      5 O         140.5987  138.3567  160.9502 O.3     1  UNL1       -0.4714
      6 O         137.9530  143.0736  160.9777 O.2     1  UNL1       -0.2707
      7 C         138.2198  142.0247  162.0163 C.2     1  UNL1        0.2708
      8 C         137.6936  142.1984  163.4101 C.3     1  UNL1        0.2897
      9 O         137.9604  141.1495  164.4487 O.3     1  UNL1       -0.4642
     10 C         138.7534  139.9268  164.0933 C.ar    1  UNL1        0.1556
     11 C         139.0202  138.8779  165.1319 C.ar    1  UNL1        0.0384
     12 C         139.8132  137.6553  164.7765 C.ar    1  UNL1        0.0063
     13 C         140.3394  137.4815  163.3826 C.ar    1  UNL1        0.0384
     14 C         140.0726  138.5304  162.3441 C.ar    1  UNL1        0.1550
     15 C         139.2796  139.7531  162.6995 C.ar    1  UNL1        0.1192
     16 N         139.0127  140.8021  161.6609 N.am    1  UNL1       -0.2761
     17 H         139.3581  140.6880  160.7461 H       1  UNL1        0.1551
     18 C         143.9533  139.3385  162.1380 C.3     1  UNL1        0.1056
     19 N         143.3788  139.6952  163.4770 N.3     1  UNL1       -0.2703
     20 C         143.5291  138.7514  164.6331 C.3     1  UNL1        0.0758
     21 C         142.9546  139.1081  165.9720 C.3     1  UNL1        0.0577
     22 C         142.2299  140.4086  166.1548 C.3     1  UNL1        0.1399
     23 C         142.0795  141.3524  164.9987 C.3     1  UNL1        0.0577
     24 C         142.6540  140.9957  163.6598 C.3     1  UNL1        0.0758
     25 C         141.4834  141.6665  166.4872 C.3     1  UNL1        0.0695
     26 C         141.0932  141.6053  167.9343 C.ar    1  UNL1        0.0161
     27 C         140.3431  142.5621  168.8129 C.ar    1  UNL1        0.0102
     28 C         140.0982  142.2231  170.2534 C.ar    1  UNL1        0.0576
     29 CL        139.3481  143.1798  171.1320 Cl      1  UNL1       -0.0823
     30 C         140.6034  140.9274  170.8154 C.ar    1  UNL1        0.0145
     31 C         141.3536  139.9706  169.9368 C.ar    1  UNL1        0.0374
     32 C         141.5985  140.3095  168.4963 C.ar    1  UNL1        0.1343
     33 O         142.3009  139.5699  167.3965 O.3     1  UNL1       -0.4825
@<TRIPOS>BOND
     1     6     7    2
     2     7     8    1
     3     8     9    1
     4     9    10    1
     5    10    11   ar
     6    11    12   ar
     7    12    13   ar
     8    13    14   ar
     9    14     5    1
    10     5     4    1
    11     4     1    1
    12     1     2    1
    13     1    18    1
    14    18    19    1
    15    19    20    1
    16    20    21    1
    17    21    22    1
    18    22    23    1
    19    23    24    1
    20    22    25    1
    21    25    26    1
    22    26    27   ar
    23    27    28   ar
    24    28    29    1
    25    28    30   ar
    26    30    31   ar
    27    31    32   ar
    28    32    33    1
    29    14    15   ar
    30    15    16    1
    31    16     7   am
    32    15    10   ar
    33    24    19    1
    34    32    26   ar
    35    33    22    1
    36     2     3    1
    37    16    17    1
@<TRIPOS>MOLECULE
*****
 33 37 0 0 0
SMALL
GASTEIGER

@<TRIPOS>ATOM
      1 C         138.8710  141.1616  160.1147 C.3     1  UNL1        0.1700
      2 O         139.8931  141.0158  159.0266 O.3     1  UNL1       -0.3793
      3 H         139.9800  141.8560  158.5498 H       1  UNL1        0.2106
      4 C         138.1703  142.4728  160.3147 C.3     1  UNL1        0.2358
      5 O         138.9014  143.6270  160.9338 O.3     1  UNL1       -0.4714
      6 O         144.0209  142.3442  162.1147 O.2     1  UNL1       -0.2707
      7 C         142.8310  142.7387  162.9384 C.2     1  UNL1        0.2708
      8 C         142.9510  142.8370  164.4304 C.3     1  UNL1        0.2897
      9 O         141.7611  143.2315  165.2541 O.3     1  UNL1       -0.4642
     10 C         140.4512  143.5276  164.5859 C.ar    1  UNL1        0.1556
     11 C         139.2614  143.9221  165.4097 C.ar    1  UNL1        0.0384
     12 C         137.9515  144.2182  164.7415 C.ar    1  UNL1        0.0063
     13 C         137.8314  144.1199  163.2495 C.ar    1  UNL1        0.0384
     14 C         139.0213  143.7254  162.4258 C.ar    1  UNL1        0.1550
     15 C         140.3313  143.4293  163.0940 C.ar    1  UNL1        0.1192
     16 N         141.5212  143.0348  162.2703 N.am    1  UNL1       -0.2761
     17 H         141.4424  142.9703  161.2910 H       1  UNL1        0.1551
     18 C         138.5495  139.9964  161.0029 C.3     1  UNL1        0.1056
     19 N         138.9896  140.0025  162.4369 N.3     1  UNL1       -0.2703
     20 C         137.9993  140.2982  163.5240 C.3     1  UNL1        0.0758
     21 C         138.4394  140.3042  164.9580 C.3     1  UNL1        0.0577
     22 C         139.8697  140.0146  165.3048 C.3     1  UNL1        0.1399
     23 C         140.8600  139.7190  164.2177 C.3     1  UNL1        0.0577
     24 C         140.4199  139.7129  162.7837 C.3     1  UNL1        0.0758
     25 C         141.2590  139.7449  165.8019 C.3     1  UNL1        0.0695
     26 C         141.2457  139.8551  167.2978 C.ar    1  UNL1        0.0161
     27 C         142.3256  139.6914  168.3260 C.ar    1  UNL1        0.0102
     28 C         142.0079  139.8656  169.7816 C.ar    1  UNL1        0.0576
     29 CL        143.0877  139.7020  170.8097 Cl      1  UNL1       -0.0823
     30 C         140.6104  140.2035  170.2090 C.ar    1  UNL1        0.0145
     31 C         139.5305  140.3672  169.1808 C.ar    1  UNL1        0.0374
     32 C         139.8481  140.1930  167.7253 C.ar    1  UNL1        0.1343
     33 O         138.9977  140.2916  166.4935 O.3     1  UNL1       -0.4825
@<TRIPOS>BOND
     1     6     7    2
     2     7     8    1
     3     8     9    1
     4     9    10    1
     5    10    11   ar
     6    11    12   ar
     7    12    13   ar
     8    13    14   ar
     9    14     5    1
    10     5     4    1
    11     4     1    1
    12     1     2    1
    13     1    18    1
    14    18    19    1
    15    19    20    1
    16    20    21    1
    17    21    22    1
    18    22    23    1
    19    23    24    1
    20    22    25    1
    21    25    26    1
    22    26    27   ar
    23    27    28   ar
    24    28    29    1
    25    28    30   ar
    26    30    31   ar
    27    31    32   ar
    28    32    33    1
    29    14    15   ar
    30    15    16    1
    31    16     7   am
    32    15    10   ar
    33    24    19    1
    34    32    26   ar
    35    33    22    1
    36     2     3    1
    37    16    17    1
@<TRIPOS>MOLECULE
*****
 33 37 0 0 0
SMALL
GASTEIGER

@<TRIPOS>ATOM
      1 C         143.2541  138.8266  160.2153 C.3     1  UNL1        0.1700
      2 O         143.5052  138.9878  158.7452 O.3     1  UNL1       -0.3793
      3 H         142.8608  138.4607  158.2475 H       1  UNL1        0.2106
      4 C         142.1363  137.9480  160.6933 C.3     1  UNL1        0.2358
      5 O         140.7819  138.5353  160.9589 O.3     1  UNL1       -0.4714
      6 O         137.8477  143.0662  161.2930 O.2     1  UNL1       -0.2707
      7 C         138.1793  141.9682  162.2597 C.2     1  UNL1        0.2708
      8 C         137.6434  142.0145  163.6599 C.3     1  UNL1        0.2897
      9 O         137.9750  140.9165  164.6265 O.3     1  UNL1       -0.4642
     10 C         138.8425  139.7722  164.1930 C.ar    1  UNL1        0.1556
     11 C         139.1741  138.6742  165.1596 C.ar    1  UNL1        0.0384
     12 C         140.0416  137.5299  164.7261 C.ar    1  UNL1        0.0063
     13 C         140.5776  137.4836  163.3258 C.ar    1  UNL1        0.0384
     14 C         140.2460  138.5816  162.3592 C.ar    1  UNL1        0.1550
     15 C         139.3784  139.7259  162.7928 C.ar    1  UNL1        0.1192
     16 N         139.0468  140.8239  161.8261 N.am    1  UNL1       -0.2761
     17 H         139.3986  140.7935  160.9071 H       1  UNL1        0.1551
     18 C         144.1209  139.5441  161.2072 C.3     1  UNL1        0.1056
     19 N         143.5730  139.9112  162.5546 N.3     1  UNL1       -0.2703
     20 C         142.7579  141.1597  162.7180 C.3     1  UNL1        0.0758
     21 C         142.2101  141.5267  164.0652 C.3     1  UNL1        0.0577
     22 C         142.4775  140.6452  165.2491 C.3     1  UNL1        0.1399
     23 C         143.2926  139.3967  165.0857 C.3     1  UNL1        0.0577
     24 C         143.8404  139.0297  163.7384 C.3     1  UNL1        0.0758
     25 C         142.6611  139.8660  166.5177 C.3     1  UNL1        0.0695
     26 C         141.9470  140.5951  167.6170 C.ar    1  UNL1        0.0161
     27 C         141.7851  140.2982  169.0784 C.ar    1  UNL1        0.0102
     28 C         140.9981  141.2309  169.9506 C.ar    1  UNL1        0.0576
     29 CL        140.8362  140.9339  171.4119 Cl      1  UNL1       -0.0823
     30 C         140.3731  142.4606  169.3615 C.ar    1  UNL1        0.0145
     31 C         140.5350  142.7577  167.9001 C.ar    1  UNL1        0.0374
     32 C         141.3219  141.8249  167.0279 C.ar    1  UNL1        0.1343
     33 O         141.6498  141.8559  165.5645 O.3     1  UNL1       -0.4825
@<TRIPOS>BOND
     1     6     7    2
     2     7     8    1
     3     8     9    1
     4     9    10    1
     5    10    11   ar
     6    11    12   ar
     7    12    13   ar
     8    13    14   ar
     9    14     5    1
    10     5     4    1
    11     4     1    1
    12     1     2    1
    13     1    18    1
    14    18    19    1
    15    19    20    1
    16    20    21    1
    17    21    22    1
    18    22    23    1
    19    23    24    1
    20    22    25    1
    21    25    26    1
    22    26    27   ar
    23    27    28   ar
    24    28    29    1
    25    28    30   ar
    26    30    31   ar
    27    31    32   ar
    28    32    33    1
    29    14    15   ar
    30    15    16    1
    31    16     7   am
    32    15    10   ar
    33    24    19    1
    34    32    26   ar
    35    33    22    1
    36     2     3    1
    37    16    17    1
@<TRIPOS>MOLECULE
*****
 33 37 0 0 0
SMALL
GASTEIGER

@<TRIPOS>ATOM
      1 C         143.7956  139.2616  160.1762 C.3     1  UNL1        0.1700
      2 O         143.3173  138.7543  158.8481 O.3     1  UNL1       -0.3793
      3 H         143.2730  139.4903  158.2178 H       1  UNL1        0.2106
      4 C         144.1184  140.7160  160.3515 C.3     1  UNL1        0.2358
      5 O         143.1220  141.6329  160.9968 O.3     1  UNL1       -0.4714
      6 O         138.1921  142.2841  163.1233 O.2     1  UNL1       -0.2707
      7 C         139.5845  142.4713  163.6488 C.2     1  UNL1        0.2708
      8 C         139.7978  142.9380  165.0583 C.3     1  UNL1        0.2897
      9 O         141.1902  143.1252  165.5838 O.3     1  UNL1       -0.4642
     10 C         142.3693  142.8457  164.6998 C.ar    1  UNL1        0.1556
     11 C         143.7617  143.0329  165.2253 C.ar    1  UNL1        0.0384
     12 C         144.9409  142.7534  164.3414 C.ar    1  UNL1        0.0063
     13 C         144.7277  142.2868  162.9318 C.ar    1  UNL1        0.0384
     14 C         143.3353  142.0996  162.4063 C.ar    1  UNL1        0.1550
     15 C         142.1561  142.3790  163.2904 C.ar    1  UNL1        0.1192
     16 N         140.7637  142.1918  162.7649 N.am    1  UNL1       -0.2761
     17 H         140.6237  141.8855  161.8397 H       1  UNL1        0.1551
     18 C         143.9512  138.3146  161.3290 C.3     1  UNL1        0.1056
     19 N         143.3316  138.6399  162.6558 N.3     1  UNL1       -0.2703
     20 C         141.8389  138.6862  162.7952 C.3     1  UNL1        0.0758
     21 C         141.2193  139.0115  164.1220 C.3     1  UNL1        0.0577
     22 C         142.0925  139.2904  165.3093 C.3     1  UNL1        0.1399
     23 C         143.5853  139.2441  165.1698 C.3     1  UNL1        0.0577
     24 C         144.2048  138.9188  163.8431 C.3     1  UNL1        0.0758
     25 C         142.8335  139.5903  166.5786 C.3     1  UNL1        0.0695
     26 C         141.8221  139.8581  167.6536 C.ar    1  UNL1        0.0161
     27 C         141.9685  140.2070  169.1050 C.ar    1  UNL1        0.0102
     28 C         140.7490  140.4215  169.9516 C.ar    1  UNL1        0.0576
     29 CL        140.8954  140.7704  171.4030 Cl      1  UNL1       -0.0823
     30 C         139.3830  140.2872  169.3466 C.ar    1  UNL1        0.0145
     31 C         139.2365  139.9384  167.8951 C.ar    1  UNL1        0.0374
     32 C         140.4560  139.7238  167.0485 C.ar    1  UNL1        0.1343
     33 O         140.6232  139.3730  165.5998 O.3     1  UNL1       -0.4825
@<TRIPOS>BOND
     1     6     7    2
     2     7     8    1
     3     8     9    1
     4     9    10    1
     5    10    11   ar
     6    11    12   ar
     7    12    13   ar
     8    13    14   ar
     9    14     5    1
    10     5     4    1
    11     4     1    1
    12     1     2    1
    13     1    18    1
    14    18    19    1
    15    19    20    1
    16    20    21    1
    17    21    22    1
    18    22    23    1
    19    23    24    1
    20    22    25    1
    21    25    26    1
    22    26    27   ar
    23    27    28   ar
    24    28    29    1
    25    28    30   ar
    26    30    31   ar
    27    31    32   ar
    28    32    33    1
    29    14    15   ar
    30    15    16    1
    31    16     7   am
    32    15    10   ar
    33    24    19    1
    34    32    26   ar
    35    33    22    1
    36     2     3    1
    37    16    17    1
@<TRIPOS>MOLECULE
*****
 33 37 0 0 0
SMALL
GASTEIGER

@<TRIPOS>ATOM
      1 C         143.7140  140.1009  159.4934 C.3     1  UNL1        0.1700
      2 O         144.4639  140.0015  158.1981 O.3     1  UNL1       -0.3793
      3 H         144.4112  140.8484  157.7282 H       1  UNL1        0.2106
      4 C         143.0347  141.3841  159.8702 C.3     1  UNL1        0.2358
      5 O         143.8129  142.4748  160.5444 O.3     1  UNL1       -0.4714
      6 O         138.7705  143.9422  161.8367 O.2     1  UNL1       -0.2707
      7 C         140.0113  143.6702  162.6345 C.2     1  UNL1        0.2708
      8 C         139.9849  143.7966  164.1289 C.3     1  UNL1        0.2897
      9 O         141.2257  143.5246  164.9266 O.3     1  UNL1       -0.4642
     10 C         142.4929  143.1261  164.2300 C.ar    1  UNL1        0.1556
     11 C         143.7337  142.8541  165.0277 C.ar    1  UNL1        0.0384
     12 C         145.0009  142.4557  164.3310 C.ar    1  UNL1        0.0063
     13 C         145.0274  142.3292  162.8366 C.ar    1  UNL1        0.0384
     14 C         143.7866  142.6012  162.0388 C.ar    1  UNL1        0.1550
     15 C         142.5193  142.9997  162.7356 C.ar    1  UNL1        0.1192
     16 N         141.2785  143.2717  161.9378 N.am    1  UNL1       -0.2761
     17 H         141.2958  143.1888  160.9570 H       1  UNL1        0.1551
     18 C         143.6435  138.9171  160.4119 C.3     1  UNL1        0.1056
     19 N         143.1664  139.0904  161.8235 N.3     1  UNL1       -0.2703
     20 C         144.1283  138.9388  162.9643 C.3     1  UNL1        0.0758
     21 C         143.6511  139.1121  164.3757 C.3     1  UNL1        0.0577
     22 C         142.2120  139.4370  164.6463 C.3     1  UNL1        0.1399
     23 C         141.2500  139.5887  163.5055 C.3     1  UNL1        0.0577
     24 C         141.7272  139.4153  162.0941 C.3     1  UNL1        0.0758
     25 C         140.8099  139.7615  165.0695 C.3     1  UNL1        0.0695
     26 C         140.7845  139.8413  166.5672 C.ar    1  UNL1        0.0161
     27 C         139.6781  140.1289  167.5384 C.ar    1  UNL1        0.0102
     28 C         139.9580  140.1415  169.0120 C.ar    1  UNL1        0.0576
     29 CL        138.8516  140.4291  169.9831 Cl      1  UNL1       -0.0823
     30 C         141.3443  139.8664  169.5144 C.ar    1  UNL1        0.0145
     31 C         142.4508  139.5787  168.5433 C.ar    1  UNL1        0.0374
     32 C         142.1709  139.5662  167.0697 C.ar    1  UNL1        0.1343
     33 O         143.0531  139.3163  165.8826 O.3     1  UNL1       -0.4825
@<TRIPOS>BOND
     1     6     7    2
     2     7     8    1
     3     8     9    1
     4     9    10    1
     5    10    11   ar
     6    11    12   ar
     7    12    13   ar
     8    13    14   ar
     9    14     5    1
    10     5     4    1
    11     4     1    1
    12     1     2    1
    13     1    18    1
    14    18    19    1
    15    19    20    1
    16    20    21    1
    17    21    22    1
    18    22    23    1
    19    23    24    1
    20    22    25    1
    21    25    26    1
    22    26    27   ar
    23    27    28   ar
    24    28    29    1
    25    28    30   ar
    26    30    31   ar
    27    31    32   ar
    28    32    33    1
    29    14    15   ar
    30    15    16    1
    31    16     7   am
    32    15    10   ar
    33    24    19    1
    34    32    26   ar
    35    33    22    1
    36     2     3    1
    37    16    17    1
