@<TRIPOS>MOLECULE
*****
 41 47 0 0 0
SMALL
GASTEIGER

@<TRIPOS>ATOM
      1 C         142.3225  142.7310  160.2156 C.3     1  UNL1        0.1707
      2 N         141.8219  143.3456  158.9421 N.3     1  UNL1       -0.2797
      3 C         140.6366  144.2644  158.9682 C.3     1  UNL1        0.1167
      4 C         139.9518  144.5687  160.2676 C.3     1  UNL1        0.0511
      5 C         140.4523  143.9541  161.5410 C.2     1  UNL1       -0.0037
      6 C         141.6377  143.0352  161.5150 C.2     1  UNL1        0.0800
      7 N         141.9028  142.5809  162.9198 N.2     1  UNL1       -0.2519
      8 C         140.8813  143.2189  163.8139 C.2     1  UNL1        0.0627
      9 C         140.6517  143.1367  165.2939 C.3     1  UNL1        0.0717
     10 C         139.5256  143.9033  165.9218 C.2     1  UNL1       -0.0198
     11 C         138.6291  144.7520  165.0697 C.2     1  UNL1       -0.0042
     12 C         138.8588  144.8341  163.5897 C.2     1  UNL1        0.0006
     13 C         139.9849  144.0676  162.9618 C.2     1  UNL1        0.0111
     14 H         141.5838  142.5754  158.3172 H       1  UNL1        0.1246
     15 C         143.1621  141.9119  161.1506 C.ar    1  UNL1        0.2493
     16 N         142.8735  140.5087  161.5950 N.ar    1  UNL1       -0.1285
     17 N         143.9709  140.0819  162.5244 N.ar    1  UNL1       -0.1809
     18 C         144.0819  138.7495  163.2044 C.3     1  UNL1        0.1605
     19 C         144.9376  141.2214  162.6544 C.ar    1  UNL1        0.4389
     20 O         146.1852  141.2286  163.4872 O.2     1  UNL1       -0.2210
     21 O         144.4377  142.3524  161.8053 O.2     1  UNL1       -0.3896
     22 C         140.1360  144.8791  157.6947 C.ar    1  UNL1        0.1319
     23 N         140.3595  146.2945  157.2515 N.ar    1  UNL1       -0.2282
     24 C         139.6856  146.4765  155.9238 C.ar    1  UNL1        0.1171
     25 C         139.0457  145.1734  155.5464 C.ar    1  UNL1        0.0942
     26 N         139.3240  144.1861  156.6409 N.ar    1  UNL1       -0.3385
     27 H         139.0261  143.2481  156.6635 H       1  UNL1        0.1672
     28 C         139.6568  147.7397  155.1154 C.ar    1  UNL1        0.1006
     29 C         140.3223  147.7857  153.7719 C.ar    1  UNL1        0.0230
     30 C         140.2935  149.0488  152.9635 C.ar    1  UNL1        0.0328
     31 C         139.5993  150.2660  153.4986 C.ar    1  UNL1        0.1592
     32 F         139.5705  151.5293  152.6902 F       1  UNL1       -0.2025
     33 C         138.9339  150.2201  154.8422 C.ar    1  UNL1        0.1284
     34 N         138.9627  148.9569  155.6506 N.ar    1  UNL1       -0.2399
     35 N         145.1099  141.9125  157.6416 N.ar    1  UNL1       -0.2497
     36 C         144.3720  142.8905  158.5072 C.ar    1  UNL1        0.0944
     37 C         143.2988  142.1423  159.2409 C.ar    1  UNL1        0.0439
     38 C         143.3735  140.7019  158.8288 C.ar    1  UNL1        0.1194
     39 N         144.4928  140.5599  157.8403 N.ar    1  UNL1       -0.1679
     40 C         147.4764  142.9228  157.2824 C.3     1  UNL1        0.0284
     41 C         146.2626  142.2313  156.7361 C.3     1  UNL1        0.1276
@<TRIPOS>BOND
     1    40    41    1
     2    41    35    1
     3    35    36   ar
     4    36    37   ar
     5    37     1    1
     6     1    15    1
     7    15    16   ar
     8    16    17   ar
     9    17    18    1
    10    17    19   ar
    11    19    20    2
    12    19    21   ar
    13     1     2    1
    14     2     3    1
    15     3    22    1
    16    22    23   ar
    17    23    24   ar
    18    24    28    1
    19    28    29   ar
    20    29    30   ar
    21    30    31   ar
    22    31    32    1
    23    31    33   ar
    24    33    34   ar
    25    24    25   ar
    26    25    26   ar
    27     3     4    1
    28     4     5    1
    29     5     6    2
    30     6     7    1
    31     7     8    2
    32     8     9    1
    33     9    10    1
    34    10    11    2
    35    11    12    1
    36    12    13    2
    37    37    38   ar
    38    38    39   ar
    39    39    35   ar
    40     6     1    1
    41    13     8    1
    42    21    15   ar
    43    26    22   ar
    44    13     5    1
    45    34    28   ar
    46     2    14    1
    47    26    27    1
@<TRIPOS>MOLECULE
*****
 41 47 0 0 0
SMALL
GASTEIGER

@<TRIPOS>ATOM
      1 C         140.8857  141.2389  159.8625 C.3     1  UNL1        0.1707
      2 N         141.1925  140.1562  158.8707 N.3     1  UNL1       -0.2797
      3 C         142.4794  139.3919  158.9690 C.3     1  UNL1        0.1167
      4 C         143.4595  139.7103  160.0590 C.3     1  UNL1        0.0511
      5 C         143.1527  140.7929  161.0508 C.2     1  UNL1       -0.0037
      6 C         141.8658  141.5573  160.9525 C.2     1  UNL1        0.0800
      7 N         141.8379  142.5627  162.0653 N.2     1  UNL1       -0.2519
      8 C         143.1075  142.4198  162.8512 C.2     1  UNL1        0.0627
      9 C         143.6285  143.1444  164.0568 C.3     1  UNL1        0.0717
     10 C         144.9622  142.7751  164.6354 C.2     1  UNL1       -0.0198
     11 C         145.7749  141.6813  164.0083 C.2     1  UNL1       -0.0042
     12 C         145.2538  140.9567  162.8028 C.2     1  UNL1        0.0006
     13 C         143.9201  141.3260  162.2242 C.2     1  UNL1        0.0111
     14 H         141.1772  140.5897  157.9475 H       1  UNL1        0.1246
     15 C         140.1498  142.3444  160.5599 C.ar    1  UNL1        0.2493
     16 N         139.1162  142.1753  161.6336 N.ar    1  UNL1       -0.1285
     17 N         138.6459  143.5396  162.0433 N.ar    1  UNL1       -0.1809
     18 C         137.6138  143.8389  163.0898 C.3     1  UNL1        0.1605
     19 C         139.3889  144.5517  161.2227 C.ar    1  UNL1        0.4389
     20 O         139.2303  146.0411  161.3045 O.2     1  UNL1       -0.2210
     21 O         140.3184  143.8131  160.3059 O.2     1  UNL1       -0.3896
     22 C         142.7863  138.3092  157.9772 C.ar    1  UNL1        0.1319
     23 N         142.3812  136.8694  158.0902 N.ar    1  UNL1       -0.2282
     24 C         142.8966  136.1465  156.8812 C.ar    1  UNL1        0.1171
     25 C         143.6203  137.1396  156.0209 C.ar    1  UNL1        0.0942
     26 N         143.5521  138.4762  156.6983 N.ar    1  UNL1       -0.3385
     27 H         143.9416  139.3157  156.3624 H       1  UNL1        0.1672
     28 C         142.7195  134.6868  156.5845 C.ar    1  UNL1        0.1006
     29 C         143.5724  133.6704  157.2840 C.ar    1  UNL1        0.0230
     30 C         143.3953  132.2108  156.9874 C.ar    1  UNL1        0.0328
     31 C         142.3652  131.7675  155.9913 C.ar    1  UNL1        0.1592
     32 F         142.1881  130.3078  155.6946 F       1  UNL1       -0.2025
     33 C         141.5123  132.7839  155.2917 C.ar    1  UNL1        0.1284
     34 N         141.6894  134.2436  155.5883 N.ar    1  UNL1       -0.2399
     35 N         137.9842  142.0542  157.4168 N.ar    1  UNL1       -0.2497
     36 C         139.3051  142.3928  158.0418 C.ar    1  UNL1        0.0944
     37 C         139.6501  141.3045  159.0147 C.ar    1  UNL1        0.0439
     38 C         138.5423  140.2933  158.9911 C.ar    1  UNL1        0.1194
     39 N         137.5128  140.7567  158.0035 N.ar    1  UNL1       -0.1679
     40 C         136.2802  142.2119  155.4619 C.3     1  UNL1        0.0284
     41 C         137.2615  142.8699  156.3860 C.3     1  UNL1        0.1276
@<TRIPOS>BOND
     1    40    41    1
     2    41    35    1
     3    35    36   ar
     4    36    37   ar
     5    37     1    1
     6     1    15    1
     7    15    16   ar
     8    16    17   ar
     9    17    18    1
    10    17    19   ar
    11    19    20    2
    12    19    21   ar
    13     1     2    1
    14     2     3    1
    15     3    22    1
    16    22    23   ar
    17    23    24   ar
    18    24    28    1
    19    28    29   ar
    20    29    30   ar
    21    30    31   ar
    22    31    32    1
    23    31    33   ar
    24    33    34   ar
    25    24    25   ar
    26    25    26   ar
    27     3     4    1
    28     4     5    1
    29     5     6    2
    30     6     7    1
    31     7     8    2
    32     8     9    1
    33     9    10    1
    34    10    11    2
    35    11    12    1
    36    12    13    2
    37    37    38   ar
    38    38    39   ar
    39    39    35   ar
    40     6     1    1
    41    13     8    1
    42    21    15   ar
    43    26    22   ar
    44    13     5    1
    45    34    28   ar
    46     2    14    1
    47    26    27    1
@<TRIPOS>MOLECULE
*****
 41 47 0 0 0
SMALL
GASTEIGER

@<TRIPOS>ATOM
      1 C         141.2789  141.3335  160.4017 C.3     1  UNL1        0.1707
      2 N         141.7861  140.4356  159.3125 N.3     1  UNL1       -0.2797
      3 C         141.6684  138.9467  159.4522 C.3     1  UNL1        0.1167
      4 C         141.0435  138.3559  160.6812 C.3     1  UNL1        0.0511
      5 C         140.5363  139.2538  161.7705 C.2     1  UNL1       -0.0037
      6 C         140.6540  140.7426  161.6307 C.2     1  UNL1        0.0800
      7 N         140.0687  141.3713  162.8604 N.2     1  UNL1       -0.2519
      8 C         139.5893  140.2710  163.7602 C.2     1  UNL1        0.0627
      9 C         138.9270  140.2917  165.1059 C.3     1  UNL1        0.0717
     10 C         138.5537  139.0037  165.7779 C.2     1  UNL1       -0.0198
     11 C         138.8426  137.6950  165.1042 C.2     1  UNL1       -0.0042
     12 C         139.5050  137.6743  163.7585 C.2     1  UNL1        0.0006
     13 C         139.8783  138.9623  163.0865 C.2     1  UNL1        0.0111
     14 H         142.7782  140.6431  159.1979 H       1  UNL1        0.1246
     15 C         140.9489  142.5880  161.1551 C.ar    1  UNL1        0.2493
     16 N         141.8459  143.2940  162.1279 N.ar    1  UNL1       -0.1285
     17 N         141.1152  144.4990  162.6419 N.ar    1  UNL1       -0.1809
     18 C         141.6410  145.4911  163.6365 C.3     1  UNL1        0.1605
     19 C         139.7666  144.5376  161.9865 C.ar    1  UNL1        0.4389
     20 O         138.7067  145.5752  162.2108 O.2     1  UNL1       -0.2210
     21 O         139.6637  143.3565  161.0676 O.2     1  UNL1       -0.3896
     22 C         142.1756  138.0487  158.3630 C.ar    1  UNL1        0.1319
     23 N         142.5615  136.6074  158.5168 N.ar    1  UNL1       -0.2282
     24 C         143.0104  136.1023  157.1777 C.ar    1  UNL1        0.1171
     25 C         142.9019  137.2314  156.1962 C.ar    1  UNL1        0.0942
     26 N         142.3860  138.4344  156.9288 N.ar    1  UNL1       -0.3385
     27 H         142.2154  139.3213  156.5370 H       1  UNL1        0.1672
     28 C         143.4845  134.7120  156.8734 C.ar    1  UNL1        0.1006
     29 C         143.2455  134.1182  155.5168 C.ar    1  UNL1        0.0230
     30 C         143.7196  132.7281  155.2125 C.ar    1  UNL1        0.0328
     31 C         144.4327  131.9317  156.2648 C.ar    1  UNL1        0.1592
     32 F         144.9068  130.5415  155.9606 F       1  UNL1       -0.2025
     33 C         144.6716  132.5255  157.6214 C.ar    1  UNL1        0.1284
     34 N         144.1975  133.9157  157.9257 N.ar    1  UNL1       -0.2399
     35 N         141.8897  143.9972  157.6454 N.ar    1  UNL1       -0.2497
     36 C         140.9810  143.0563  158.3798 C.ar    1  UNL1        0.0944
     37 C         141.7892  142.3601  159.4344 C.ar    1  UNL1        0.0439
     38 C         143.1972  142.8706  159.3518 C.ar    1  UNL1        0.1194
     39 N         143.2593  143.8825  158.2462 N.ar    1  UNL1       -0.1679
     40 C         140.5949  146.0673  156.7577 C.3     1  UNL1        0.0284
     41 C         141.4974  144.8952  156.5097 C.3     1  UNL1        0.1276
@<TRIPOS>BOND
     1    40    41    1
     2    41    35    1
     3    35    36   ar
     4    36    37   ar
     5    37     1    1
     6     1    15    1
     7    15    16   ar
     8    16    17   ar
     9    17    18    1
    10    17    19   ar
    11    19    20    2
    12    19    21   ar
    13     1     2    1
    14     2     3    1
    15     3    22    1
    16    22    23   ar
    17    23    24   ar
    18    24    28    1
    19    28    29   ar
    20    29    30   ar
    21    30    31   ar
    22    31    32    1
    23    31    33   ar
    24    33    34   ar
    25    24    25   ar
    26    25    26   ar
    27     3     4    1
    28     4     5    1
    29     5     6    2
    30     6     7    1
    31     7     8    2
    32     8     9    1
    33     9    10    1
    34    10    11    2
    35    11    12    1
    36    12    13    2
    37    37    38   ar
    38    38    39   ar
    39    39    35   ar
    40     6     1    1
    41    13     8    1
    42    21    15   ar
    43    26    22   ar
    44    13     5    1
    45    34    28   ar
    46     2    14    1
    47    26    27    1
@<TRIPOS>MOLECULE
*****
 41 47 0 0 0
SMALL
GASTEIGER

@<TRIPOS>ATOM
      1 C         141.4179  142.2872  159.2519 C.3     1  UNL1        0.1707
      2 N         140.1256  141.9647  158.5619 N.3     1  UNL1       -0.2797
      3 C         140.1100  141.6955  157.0864 C.3     1  UNL1        0.1167
      4 C         141.3868  141.7487  156.3008 C.3     1  UNL1        0.0511
      5 C         142.6790  142.0712  156.9907 C.2     1  UNL1       -0.0037
      6 C         142.6946  142.3404  158.4663 C.2     1  UNL1        0.0800
      7 N         144.1100  142.6299  158.8697 N.2     1  UNL1       -0.2519
      8 C         144.9692  142.5396  157.6434 C.2     1  UNL1        0.0627
      9 C         146.4427  142.7272  157.4343 C.3     1  UNL1        0.0717
     10 C         147.0317  142.5694  156.0639 C.2     1  UNL1       -0.0198
     11 C         146.1473  142.2241  154.9026 C.2     1  UNL1       -0.0042
     12 C         144.6738  142.0365  155.1117 C.2     1  UNL1        0.0006
     13 C         144.0848  142.1943  156.4822 C.2     1  UNL1        0.0111
     14 H         139.5004  142.7543  158.7238 H       1  UNL1        0.1246
     15 C         142.3833  142.6329  160.3467 C.ar    1  UNL1        0.2493
     16 N         143.2253  141.6612  161.1190 N.ar    1  UNL1       -0.1285
     17 N         144.0385  142.4388  162.1110 N.ar    1  UNL1       -0.1809
     18 C         145.0190  141.8648  163.0903 C.3     1  UNL1        0.1605
     19 C         143.6990  143.8911  161.9517 C.ar    1  UNL1        0.4389
     20 O         144.2805  145.0246  162.7438 O.2     1  UNL1       -0.2210
     21 O         142.6760  144.0111  160.8613 O.2     1  UNL1       -0.3896
     22 C         138.8177  141.3730  156.3964 C.ar    1  UNL1        0.1319
     23 N         137.4792  141.2234  157.0567 N.ar    1  UNL1       -0.2282
     24 C         136.4713  140.9015  155.9934 C.ar    1  UNL1        0.1171
     25 C         137.1869  140.8521  154.6761 C.ar    1  UNL1        0.0942
     26 N         138.6371  141.1435  154.9251 N.ar    1  UNL1       -0.3385
     27 H         139.3459  141.1781  154.2428 H       1  UNL1        0.1672
     28 C         135.0051  140.6696  156.2096 C.ar    1  UNL1        0.1006
     29 C         134.0011  141.3277  155.3101 C.ar    1  UNL1        0.0230
     30 C         132.5350  141.0958  155.5263 C.ar    1  UNL1        0.0328
     31 C         132.0729  140.2060  156.6418 C.ar    1  UNL1        0.1592
     32 F         130.6068  139.9741  156.8580 F       1  UNL1       -0.2025
     33 C         133.0769  139.5480  157.5413 C.ar    1  UNL1        0.1284
     34 N         134.5430  139.7798  157.3252 N.ar    1  UNL1       -0.2399
     35 N         138.8890  143.1777  162.0585 N.ar    1  UNL1       -0.2497
     36 C         139.6986  143.5598  160.8549 C.ar    1  UNL1        0.0944
     37 C         140.4764  142.3541  160.4177 C.ar    1  UNL1        0.0439
     38 C         140.1476  141.2268  161.3511 C.ar    1  UNL1        0.1194
     39 N         139.1664  141.7359  162.3652 N.ar    1  UNL1       -0.1679
     40 C         138.0707  144.1726  164.3148 C.3     1  UNL1        0.0284
     41 C         137.9643  144.0793  162.8215 C.3     1  UNL1        0.1276
@<TRIPOS>BOND
     1    40    41    1
     2    41    35    1
     3    35    36   ar
     4    36    37   ar
     5    37     1    1
     6     1    15    1
     7    15    16   ar
     8    16    17   ar
     9    17    18    1
    10    17    19   ar
    11    19    20    2
    12    19    21   ar
    13     1     2    1
    14     2     3    1
    15     3    22    1
    16    22    23   ar
    17    23    24   ar
    18    24    28    1
    19    28    29   ar
    20    29    30   ar
    21    30    31   ar
    22    31    32    1
    23    31    33   ar
    24    33    34   ar
    25    24    25   ar
    26    25    26   ar
    27     3     4    1
    28     4     5    1
    29     5     6    2
    30     6     7    1
    31     7     8    2
    32     8     9    1
    33     9    10    1
    34    10    11    2
    35    11    12    1
    36    12    13    2
    37    37    38   ar
    38    38    39   ar
    39    39    35   ar
    40     6     1    1
    41    13     8    1
    42    21    15   ar
    43    26    22   ar
    44    13     5    1
    45    34    28   ar
    46     2    14    1
    47    26    27    1
@<TRIPOS>MOLECULE
*****
 41 47 0 0 0
SMALL
GASTEIGER

@<TRIPOS>ATOM
      1 C         141.1173  140.2457  159.7401 C.3     1  UNL1        0.1707
      2 N         141.6684  139.0025  159.1070 N.3     1  UNL1       -0.2797
      3 C         142.3321  139.0758  157.7639 C.3     1  UNL1        0.1167
      4 C         142.4448  140.3923  157.0538 C.3     1  UNL1        0.0511
      5 C         141.8937  141.6355  157.6868 C.2     1  UNL1       -0.0037
      6 C         141.2300  141.5622  159.0300 C.2     1  UNL1        0.0800
      7 N         140.7842  142.9450  159.4027 N.2     1  UNL1       -0.2519
      8 C         141.1723  143.8730  158.2900 C.2     1  UNL1        0.0627
      9 C         140.9900  145.3503  158.1054 C.3     1  UNL1        0.0717
     10 C         141.4934  146.0183  156.8602 C.2     1  UNL1       -0.0198
     11 C         142.1791  145.2089  155.7997 C.2     1  UNL1       -0.0042
     12 C         142.3615  143.7316  155.9843 C.2     1  UNL1        0.0006
     13 C         141.8581  143.0636  157.2295 C.2     1  UNL1        0.0111
     14 H         140.8906  138.3489  159.0159 H       1  UNL1        0.1246
     15 C         140.4462  141.1396  160.7404 C.ar    1  UNL1        0.2493
     16 N         141.1311  141.9314  161.8145 N.ar    1  UNL1       -0.1285
     17 N         140.0804  142.6797  162.5801 N.ar    1  UNL1       -0.1809
     18 C         140.3217  143.5965  163.7426 C.3     1  UNL1        0.1605
     19 C         138.7462  142.3503  161.9792 C.ar    1  UNL1        0.4389
     20 O         137.4188  142.8798  162.4352 O.2     1  UNL1       -0.2210
     21 O         138.9722  141.3984  160.8422 O.2     1  UNL1       -0.3896
     22 C         142.8832  137.8326  157.1307 C.ar    1  UNL1        0.1319
     23 N         142.5359  136.4229  157.5077 N.ar    1  UNL1       -0.2282
     24 C         143.3163  135.4999  156.6195 C.ar    1  UNL1        0.1171
     25 C         144.1460  136.3391  155.6936 C.ar    1  UNL1        0.0942
     26 N         143.8783  137.7808  156.0096 N.ar    1  UNL1       -0.3385
     27 H         144.2844  138.5568  155.5600 H       1  UNL1        0.1672
     28 C         143.2745  134.0008  156.6516 C.ar    1  UNL1        0.1006
     29 C         144.3303  133.2367  157.3942 C.ar    1  UNL1        0.0230
     30 C         144.2885  131.7377  157.4263 C.ar    1  UNL1        0.0328
     31 C         143.1908  131.0027  156.7158 C.ar    1  UNL1        0.1592
     32 F         143.1489  129.5036  156.7479 F       1  UNL1       -0.2025
     33 C         142.1350  131.7667  155.9732 C.ar    1  UNL1        0.1284
     34 N         142.1768  133.2658  155.9411 N.ar    1  UNL1       -0.2399
     35 N         140.8631  137.8719  162.8005 N.ar    1  UNL1       -0.2497
     36 C         141.5774  138.9403  162.0268 C.ar    1  UNL1        0.0944
     37 C         140.7716  139.2397  160.7976 C.ar    1  UNL1        0.0439
     38 C         139.5593  138.3564  160.8116 C.ar    1  UNL1        0.1194
     39 N         139.6158  137.5111  162.0494 N.ar    1  UNL1       -0.1679
     40 C         142.1042  138.0946  165.0721 C.3     1  UNL1        0.0284
     41 C         141.3165  137.2701  164.0975 C.3     1  UNL1        0.1276
@<TRIPOS>BOND
     1    40    41    1
     2    41    35    1
     3    35    36   ar
     4    36    37   ar
     5    37     1    1
     6     1    15    1
     7    15    16   ar
     8    16    17   ar
     9    17    18    1
    10    17    19   ar
    11    19    20    2
    12    19    21   ar
    13     1     2    1
    14     2     3    1
    15     3    22    1
    16    22    23   ar
    17    23    24   ar
    18    24    28    1
    19    28    29   ar
    20    29    30   ar
    21    30    31   ar
    22    31    32    1
    23    31    33   ar
    24    33    34   ar
    25    24    25   ar
    26    25    26   ar
    27     3     4    1
    28     4     5    1
    29     5     6    2
    30     6     7    1
    31     7     8    2
    32     8     9    1
    33     9    10    1
    34    10    11    2
    35    11    12    1
    36    12    13    2
    37    37    38   ar
    38    38    39   ar
    39    39    35   ar
    40     6     1    1
    41    13     8    1
    42    21    15   ar
    43    26    22   ar
    44    13     5    1
    45    34    28   ar
    46     2    14    1
    47    26    27    1
@<TRIPOS>MOLECULE
*****
 41 47 0 0 0
SMALL
GASTEIGER

@<TRIPOS>ATOM
      1 C         142.0134  141.1211  159.8140 C.3     1  UNL1        0.1707
      2 N         142.0233  139.7577  159.1886 N.3     1  UNL1       -0.2797
      3 C         141.5480  139.5764  157.7775 C.3     1  UNL1        0.1167
      4 C         141.0628  140.7584  156.9918 C.3     1  UNL1        0.0511
      5 C         141.0530  142.1218  157.6171 C.2     1  UNL1       -0.0037
      6 C         141.5283  142.3031  159.0282 C.2     1  UNL1        0.0800
      7 N         141.4033  143.7569  159.3762 N.2     1  UNL1       -0.2519
      8 C         140.8508  144.4740  158.1801 C.2     1  UNL1        0.0627
      9 C         140.5169  145.9165  157.9405 C.3     1  UNL1        0.0717
     10 C         139.9665  146.3486  156.6138 C.2     1  UNL1       -0.0198
     11 C         139.7499  145.3380  155.5266 C.2     1  UNL1       -0.0042
     12 C         140.0838  143.8955  155.7662 C.2     1  UNL1        0.0006
     13 C         140.6343  143.4634  157.0930 C.2     1  UNL1        0.0111
     14 H         141.4400  139.1607  159.7749 H       1  UNL1        0.1246
     15 C         142.1938  142.2047  160.8354 C.ar    1  UNL1        0.2493
     16 N         141.1753  142.6423  161.8458 N.ar    1  UNL1       -0.1285
     17 N         141.7765  143.7491  162.6606 N.ar    1  UNL1       -0.1809
     18 C         141.1054  144.4808  163.7849 C.3     1  UNL1        0.1605
     19 C         143.1665  143.9954  162.1536 C.ar    1  UNL1        0.4389
     20 O         144.1295  145.0170  162.6819 O.2     1  UNL1       -0.2210
     21 O         143.4244  143.0410  161.0255 O.2     1  UNL1       -0.3896
     22 C         141.5579  138.2129  157.1521 C.ar    1  UNL1        0.1319
     23 N         142.5798  137.1411  157.3904 N.ar    1  UNL1       -0.2282
     24 C         142.2011  135.9478  156.5642 C.ar    1  UNL1        0.1171
     25 C         140.9451  136.2821  155.8154 C.ar    1  UNL1        0.0942
     26 N         140.5476  137.6821  156.1788 N.ar    1  UNL1       -0.3385
     27 H         139.7615  138.1673  155.8382 H       1  UNL1        0.1672
     28 C         142.9474  134.6482  156.4984 C.ar    1  UNL1        0.1006
     29 C         142.8958  133.8160  155.2515 C.ar    1  UNL1        0.0230
     30 C         143.6420  132.5165  155.1857 C.ar    1  UNL1        0.0328
     31 C         144.4399  132.0492  156.3668 C.ar    1  UNL1        0.1592
     32 F         145.1862  130.7497  156.3010 F       1  UNL1       -0.2025
     33 C         144.4915  132.8814  157.6137 C.ar    1  UNL1        0.1284
     34 N         143.7453  134.1809  157.6795 N.ar    1  UNL1       -0.2399
     35 N         142.7062  138.9287  162.9411 N.ar    1  UNL1       -0.2497
     36 C         141.7537  139.6042  161.9995 C.ar    1  UNL1        0.0944
     37 C         142.5612  140.3154  160.9545 C.ar    1  UNL1        0.0439
     38 C         144.0128  140.0794  161.2501 C.ar    1  UNL1        0.1194
     39 N         144.1024  139.2224  162.4780 N.ar    1  UNL1       -0.1679
     40 C         141.1108  137.2301  164.0896 C.3     1  UNL1        0.0284
     41 C         142.3288  138.1043  164.1361 C.3     1  UNL1        0.1276
@<TRIPOS>BOND
     1    40    41    1
     2    41    35    1
     3    35    36   ar
     4    36    37   ar
     5    37     1    1
     6     1    15    1
     7    15    16   ar
     8    16    17   ar
     9    17    18    1
    10    17    19   ar
    11    19    20    2
    12    19    21   ar
    13     1     2    1
    14     2     3    1
    15     3    22    1
    16    22    23   ar
    17    23    24   ar
    18    24    28    1
    19    28    29   ar
    20    29    30   ar
    21    30    31   ar
    22    31    32    1
    23    31    33   ar
    24    33    34   ar
    25    24    25   ar
    26    25    26   ar
    27     3     4    1
    28     4     5    1
    29     5     6    2
    30     6     7    1
    31     7     8    2
    32     8     9    1
    33     9    10    1
    34    10    11    2
    35    11    12    1
    36    12    13    2
    37    37    38   ar
    38    38    39   ar
    39    39    35   ar
    40     6     1    1
    41    13     8    1
    42    21    15   ar
    43    26    22   ar
    44    13     5    1
    45    34    28   ar
    46     2    14    1
    47    26    27    1
@<TRIPOS>MOLECULE
*****
 41 47 0 0 0
SMALL
GASTEIGER

@<TRIPOS>ATOM
      1 C         140.0673  141.3947  159.6922 C.3     1  UNL1        0.1707
      2 N         140.0655  140.5375  158.4614 N.3     1  UNL1       -0.2797
      3 C         139.8074  139.0641  158.5739 C.3     1  UNL1        0.1167
      4 C         139.5509  138.4481  159.9174 C.3     1  UNL1        0.0511
      5 C         139.5526  139.3054  161.1482 C.2     1  UNL1       -0.0037
      6 C         139.8108  140.7787  161.0357 C.2     1  UNL1        0.0800
      7 N         139.7507  141.3664  162.4144 N.2     1  UNL1       -0.2519
      8 C         139.4554  140.2564  163.3791 C.2     1  UNL1        0.0627
      9 C         139.2821  140.2409  164.8689 C.3     1  UNL1        0.0717
     10 C         138.9864  138.9516  165.5762 C.2     1  UNL1       -0.0198
     11 C         138.8640  137.6778  164.7936 C.2     1  UNL1       -0.0042
     12 C         139.0373  137.6933  163.3038 C.2     1  UNL1        0.0006
     13 C         139.3329  138.9825  162.5965 C.2     1  UNL1        0.0111
     14 H         140.9825  140.6434  158.0275 H       1  UNL1        0.1246
     15 C         140.1705  142.6129  160.5615 C.ar    1  UNL1        0.2493
     16 N         141.3695  143.0252  161.3628 N.ar    1  UNL1       -0.1285
     17 N         141.0328  144.2998  162.0785 N.ar    1  UNL1       -0.1809
     18 C         141.9434  145.0646  162.9927 C.3     1  UNL1        0.1605
     19 C         139.6256  144.6751  161.7195 C.ar    1  UNL1        0.4389
     20 O         138.8819  145.8812  162.2116 O.2     1  UNL1       -0.2210
     21 O         139.0926  143.6325  160.7819 O.2     1  UNL1       -0.3896
     22 C         139.8056  138.2068  157.3430 C.ar    1  UNL1        0.1319
     23 N         140.7627  137.0910  157.0445 N.ar    1  UNL1       -0.2282
     24 C         140.3951  136.5094  155.7116 C.ar    1  UNL1        0.1171
     25 C         139.2110  137.2656  155.1864 C.ar    1  UNL1        0.0942
     26 N         138.8466  138.3147  156.1947 N.ar    1  UNL1       -0.3385
     27 H         138.1078  138.9607  156.1166 H       1  UNL1        0.1672
     28 C         141.0898  135.3712  155.0245 C.ar    1  UNL1        0.1006
     29 C         141.0000  135.2277  153.5341 C.ar    1  UNL1        0.0230
     30 C         141.6946  134.0896  152.8470 C.ar    1  UNL1        0.0328
     31 C         142.4791  133.0950  153.6503 C.ar    1  UNL1        0.1592
     32 F         143.1738  131.9568  152.9632 F       1  UNL1       -0.2025
     33 C         142.5689  133.2385  155.1407 C.ar    1  UNL1        0.1284
     34 N         141.8743  134.3766  155.8278 N.ar    1  UNL1       -0.2399
     35 N         140.0751  144.1669  156.9756 N.ar    1  UNL1       -0.2497
     36 C         139.3432  143.2615  157.9214 C.ar    1  UNL1        0.0944
     37 C         140.3596  142.4338  158.6507 C.ar    1  UNL1        0.0439
     38 C         141.7197  142.8277  158.1557 C.ar    1  UNL1        0.1194
     39 N         141.5438  143.8988  157.1203 N.ar    1  UNL1       -0.1679
     40 C         139.5794  146.6332  156.3263 C.3     1  UNL1        0.0284
     41 C         139.4483  145.1652  156.0479 C.3     1  UNL1        0.1276
@<TRIPOS>BOND
     1    40    41    1
     2    41    35    1
     3    35    36   ar
     4    36    37   ar
     5    37     1    1
     6     1    15    1
     7    15    16   ar
     8    16    17   ar
     9    17    18    1
    10    17    19   ar
    11    19    20    2
    12    19    21   ar
    13     1     2    1
    14     2     3    1
    15     3    22    1
    16    22    23   ar
    17    23    24   ar
    18    24    28    1
    19    28    29   ar
    20    29    30   ar
    21    30    31   ar
    22    31    32    1
    23    31    33   ar
    24    33    34   ar
    25    24    25   ar
    26    25    26   ar
    27     3     4    1
    28     4     5    1
    29     5     6    2
    30     6     7    1
    31     7     8    2
    32     8     9    1
    33     9    10    1
    34    10    11    2
    35    11    12    1
    36    12    13    2
    37    37    38   ar
    38    38    39   ar
    39    39    35   ar
    40     6     1    1
    41    13     8    1
    42    21    15   ar
    43    26    22   ar
    44    13     5    1
    45    34    28   ar
    46     2    14    1
    47    26    27    1
@<TRIPOS>MOLECULE
*****
 41 47 0 0 0
SMALL
GASTEIGER

@<TRIPOS>ATOM
      1 C         142.5805  140.2921  159.3371 C.3     1  UNL1        0.1707
      2 N         143.3661  140.6606  158.1136 N.3     1  UNL1       -0.2797
      3 C         144.2543  141.8692  158.1284 C.3     1  UNL1        0.1167
      4 C         144.3568  142.7095  159.3668 C.3     1  UNL1        0.0511
      5 C         143.5712  142.3411  160.5903 C.2     1  UNL1       -0.0037
      6 C         142.6830  141.1324  160.5754 C.2     1  UNL1        0.0800
      7 N         142.0335  141.0180  161.9227 N.2     1  UNL1       -0.2519
      8 C         142.5202  142.1559  162.7701 C.2     1  UNL1        0.0627
      9 C         142.2208  142.5532  164.1852 C.3     1  UNL1        0.0717
     10 C         142.8718  143.7681  164.7768 C.2     1  UNL1       -0.0198
     11 C         143.8222  144.5859  163.9533 C.2     1  UNL1       -0.0042
     12 C         144.1216  144.1886  162.5382 C.2     1  UNL1        0.0006
     13 C         143.4706  142.9737  161.9466 C.2     1  UNL1        0.0111
     14 H         142.6914  140.8001  157.3614 H       1  UNL1        0.1246
     15 C         141.6465  139.5413  160.2395 C.ar    1  UNL1        0.2493
     16 N         140.1732  139.7834  160.3816 N.ar    1  UNL1       -0.1285
     17 N         139.6382  138.8083  161.3881 N.ar    1  UNL1       -0.1809
     18 C         138.2109  138.6975  161.8360 C.3     1  UNL1        0.1605
     19 C         140.7810  137.9636  161.8680 C.ar    1  UNL1        0.4389
     20 O         140.6973  136.8597  162.8801 O.2     1  UNL1       -0.2210
     21 O         142.0223  138.4167  161.1581 O.2     1  UNL1       -0.3896
     22 C         145.0400  142.2377  156.9048 C.ar    1  UNL1        0.1319
     23 N         146.5097  142.0176  156.7015 N.ar    1  UNL1       -0.2282
     24 C         146.8720  142.5348  155.3409 C.ar    1  UNL1        0.1171
     25 C         145.6261  143.0745  154.7034 C.ar    1  UNL1        0.0942
     26 N         144.4938  142.8909  155.6699 N.ar    1  UNL1       -0.3385
     27 H         143.5568  143.1531  155.5201 H       1  UNL1        0.1672
     28 C         148.2400  142.5156  154.7258 C.ar    1  UNL1        0.1006
     29 C         149.3188  141.6615  155.3229 C.ar    1  UNL1        0.0230
     30 C         150.6868  141.6423  154.7079 C.ar    1  UNL1        0.0328
     31 C         150.9759  142.4772  153.4958 C.ar    1  UNL1        0.1592
     32 F         152.3439  142.4580  152.8807 F       1  UNL1       -0.2025
     33 C         149.8970  143.3313  152.8986 C.ar    1  UNL1        0.1284
     34 N         148.5290  143.3505  153.5137 N.ar    1  UNL1       -0.2399
     35 N         142.1124  137.1079  157.1676 N.ar    1  UNL1       -0.2497
     36 C         142.8991  137.9146  158.1578 C.ar    1  UNL1        0.0944
     37 C         142.1536  139.1912  158.4122 C.ar    1  UNL1        0.0439
     38 C         140.9062  139.1734  157.5792 C.ar    1  UNL1        0.1194
     39 N         140.8808  137.8858  156.8100 N.ar    1  UNL1       -0.1679
     40 C         143.6103  135.6352  155.6387 C.3     1  UNL1        0.0284
     41 C         142.4909  135.7599  156.6294 C.3     1  UNL1        0.1276
@<TRIPOS>BOND
     1    40    41    1
     2    41    35    1
     3    35    36   ar
     4    36    37   ar
     5    37     1    1
     6     1    15    1
     7    15    16   ar
     8    16    17   ar
     9    17    18    1
    10    17    19   ar
    11    19    20    2
    12    19    21   ar
    13     1     2    1
    14     2     3    1
    15     3    22    1
    16    22    23   ar
    17    23    24   ar
    18    24    28    1
    19    28    29   ar
    20    29    30   ar
    21    30    31   ar
    22    31    32    1
    23    31    33   ar
    24    33    34   ar
    25    24    25   ar
    26    25    26   ar
    27     3     4    1
    28     4     5    1
    29     5     6    2
    30     6     7    1
    31     7     8    2
    32     8     9    1
    33     9    10    1
    34    10    11    2
    35    11    12    1
    36    12    13    2
    37    37    38   ar
    38    38    39   ar
    39    39    35   ar
    40     6     1    1
    41    13     8    1
    42    21    15   ar
    43    26    22   ar
    44    13     5    1
    45    34    28   ar
    46     2    14    1
    47    26    27    1
@<TRIPOS>MOLECULE
*****
 41 47 0 0 0
SMALL
GASTEIGER

@<TRIPOS>ATOM
      1 C         140.1527  140.5233  160.1227 C.3     1  UNL1        0.1707
      2 N         140.8254  140.5094  161.4633 N.3     1  UNL1       -0.2797
      3 C         141.9320  139.5345  161.7371 C.3     1  UNL1        0.1167
      4 C         142.3659  138.5734  160.6703 C.3     1  UNL1        0.0511
      5 C         141.6932  138.5873  159.3297 C.2     1  UNL1       -0.0037
      6 C         140.5866  139.5622  159.0559 C.2     1  UNL1        0.0800
      7 N         140.1135  139.3433  157.6494 N.2     1  UNL1       -0.2519
      8 C         140.9277  138.2331  157.0539 C.2     1  UNL1        0.0627
      9 C         140.9063  137.5873  155.7003 C.3     1  UNL1        0.0717
     10 C         141.8611  136.4743  155.3851 C.2     1  UNL1       -0.0198
     11 C         142.8374  136.0070  156.4236 C.2     1  UNL1       -0.0042
     12 C         142.8589  136.6528  157.7772 C.2     1  UNL1        0.0006
     13 C         141.9041  137.7659  158.0924 C.2     1  UNL1        0.0111
     14 H         140.0981  140.3314  162.1559 H       1  UNL1        0.1246
     15 C         139.2164  140.9185  159.0195 C.ar    1  UNL1        0.2493
     16 N         139.3892  142.0843  158.0918 N.ar    1  UNL1       -0.1285
     17 N         138.2223  142.1036  157.1492 N.ar    1  UNL1       -0.1809
     18 C         137.9903  143.1016  156.0538 C.3     1  UNL1        0.1605
     19 C         137.3285  140.9496  157.4945 C.ar    1  UNL1        0.4389
     20 O         136.0455  140.5910  156.8050 O.2     1  UNL1       -0.2210
     21 O         137.9429  140.2171  158.6505 O.2     1  UNL1       -0.3896
     22 C         142.6048  139.5207  163.0778 C.ar    1  UNL1        0.1319
     23 N         142.0395  140.0709  164.3535 N.ar    1  UNL1       -0.2282
     24 C         143.0463  139.8445  165.4422 C.ar    1  UNL1        0.1171
     25 C         144.2337  139.1543  164.8393 C.ar    1  UNL1        0.0942
     26 N         143.9609  138.9542  163.3779 N.ar    1  UNL1       -0.3385
     27 H         144.5657  138.5262  162.7296 H       1  UNL1        0.1672
     28 C         142.8925  140.2390  166.8813 C.ar    1  UNL1        0.1006
     29 C         142.7723  141.6871  167.2532 C.ar    1  UNL1        0.0230
     30 C         142.6186  142.0816  168.6922 C.ar    1  UNL1        0.0328
     31 C         142.5850  141.0280  169.7592 C.ar    1  UNL1        0.1592
     32 F         142.4312  141.4225  171.1983 F       1  UNL1       -0.2025
     33 C         142.7051  139.5798  169.3873 C.ar    1  UNL1        0.1284
     34 N         142.8589  139.1853  167.9483 N.ar    1  UNL1       -0.2399
     35 N         138.8335  143.7498  161.8299 N.ar    1  UNL1       -0.2497
     36 C         139.9314  142.9760  161.1621 C.ar    1  UNL1        0.0944
     37 C         139.3936  141.6216  160.8064 C.ar    1  UNL1        0.0439
     38 C         137.9635  141.5584  161.2544 C.ar    1  UNL1        0.1194
     39 N         137.6173  142.8737  161.8870 N.ar    1  UNL1       -0.1679
     40 C         140.2413  145.8862  162.2816 C.3     1  UNL1        0.0284
     41 C         138.9343  145.1534  162.3495 C.3     1  UNL1        0.1276
@<TRIPOS>BOND
     1    40    41    1
     2    41    35    1
     3    35    36   ar
     4    36    37   ar
     5    37     1    1
     6     1    15    1
     7    15    16   ar
     8    16    17   ar
     9    17    18    1
    10    17    19   ar
    11    19    20    2
    12    19    21   ar
    13     1     2    1
    14     2     3    1
    15     3    22    1
    16    22    23   ar
    17    23    24   ar
    18    24    28    1
    19    28    29   ar
    20    29    30   ar
    21    30    31   ar
    22    31    32    1
    23    31    33   ar
    24    33    34   ar
    25    24    25   ar
    26    25    26   ar
    27     3     4    1
    28     4     5    1
    29     5     6    2
    30     6     7    1
    31     7     8    2
    32     8     9    1
    33     9    10    1
    34    10    11    2
    35    11    12    1
    36    12    13    2
    37    37    38   ar
    38    38    39   ar
    39    39    35   ar
    40     6     1    1
    41    13     8    1
    42    21    15   ar
    43    26    22   ar
    44    13     5    1
    45    34    28   ar
    46     2    14    1
    47    26    27    1
