@<TRIPOS>MOLECULE
*****
 33 37 0 0 0
SMALL
GASTEIGER

@<TRIPOS>ATOM
      1 N         138.4514  141.5049  163.6421 N.3     1  UNL1       -0.2724
      2 C         137.6576  142.5911  164.3055 C.3     1  UNL1        0.0724
      3 C         138.5671  143.7642  164.5214 C.3     1  UNL1        0.0214
      4 C         139.6917  144.7534  164.6021 C.3     1  UNL1        0.0072
      5 C         139.9231  143.4031  163.9914 C.3     1  UNL1        0.0351
      6 C         139.8515  142.0068  163.4479 C.3     1  UNL1        0.0761
      7 C         141.3716  143.6226  163.6695 C.ar    1  UNL1       -0.0184
      8 C         141.9742  144.9882  163.8181 C.ar    1  UNL1       -0.0040
      9 C         143.4228  145.2078  163.4962 C.ar    1  UNL1        0.0028
     10 C         144.2687  144.0618  163.0258 C.ar    1  UNL1        0.0372
     11 C         143.6659  142.6962  162.8773 C.ar    1  UNL1        0.1465
     12 C         142.2174  142.4766  163.1991 C.ar    1  UNL1        0.0329
     13 O         144.5118  141.5502  162.4068 O.3     1  UNL1       -0.4045
     14 C         144.9999  140.5260  163.3880 C.3     1  UNL1        0.5753
     15 F         145.4881  139.5018  164.3693 F       1  UNL1       -0.1328
     16 F         143.9824  139.5502  162.8757 F       1  UNL1       -0.1328
     17 F         146.0174  141.5019  163.9004 F       1  UNL1       -0.1328
     18 C         137.9356  140.1541  163.2429 C.3     1  UNL1        0.0730
     19 C         138.7682  139.2608  162.3719 C.3     1  UNL1        0.0294
     20 C         139.6107  138.1844  162.9895 C.3     1  UNL1        0.0666
     21 S         139.6093  137.9918  164.4772 S.3     1  UNL1       -0.0756
     22 C         142.0732  139.7174  166.9300 C.ar    1  UNL1        0.2029
     23 N         142.9962  138.7899  166.1966 N.ar    1  UNL1       -0.1250
     24 N         142.1856  138.0306  165.1886 N.ar    1  UNL1       -0.1220
     25 C         140.7616  138.4888  165.2989 C.ar    1  UNL1        0.1933
     26 N         140.6922  139.5313  166.3751 N.ar    1  UNL1       -0.2860
     27 C         139.4582  140.2598  166.8186 C.3     1  UNL1        0.1341
     28 C         143.5020  142.6246  166.5345 C.3     1  UNL1        0.0556
     29 C         143.1197  142.0009  167.8440 C.ar    1  UNL1        0.1001
     30 N         143.3270  142.6041  169.2017 N.ar    1  UNL1       -0.2085
     31 C         142.7984  141.6405  170.2225 C.ar    1  UNL1        0.2849
     32 O         142.2645  140.4419  169.4959 O.2     1  UNL1       -0.4283
     33 C         142.4630  140.6647  168.0258 C.ar    1  UNL1        0.1964
@<TRIPOS>BOND
     1    28    29    1
     2    29    30   ar
     3    30    31   ar
     4    31    32   ar
     5    32    33   ar
     6    33    22    1
     7    22    23   ar
     8    23    24   ar
     9    24    25   ar
    10    25    21    1
    11    21    20    1
    12    20    19    1
    13    19    18    1
    14    18     1    1
    15     1     2    1
    16     2     3    1
    17     3     4    1
    18     4     5    1
    19     5     7    1
    20     7     8   ar
    21     8     9   ar
    22     9    10   ar
    23    10    11   ar
    24    11    13    1
    25    13    14    1
    26    14    15    1
    27    14    16    1
    28    14    17    1
    29    11    12   ar
    30     5     6    1
    31    25    26   ar
    32    26    27    1
    33    33    29   ar
    34    26    22   ar
    35     6     1    1
    36     5     3    1
    37    12     7   ar
@<TRIPOS>MOLECULE
*****
 33 37 0 0 0
SMALL
GASTEIGER

@<TRIPOS>ATOM
      1 N         142.0569  144.4313  163.4094 N.3     1  UNL1       -0.2724
      2 C         143.4428  144.5191  162.8422 C.3     1  UNL1        0.0724
      3 C         144.3010  143.5187  163.5583 C.3     1  UNL1        0.0214
      4 C         144.8953  142.4535  164.4312 C.3     1  UNL1        0.0072
      5 C         143.4455  142.8127  164.5681 C.3     1  UNL1        0.0351
      6 C         142.0586  143.3767  164.4760 C.3     1  UNL1        0.0761
      7 C         143.1440  141.8332  165.6634 C.ar    1  UNL1       -0.0184
      8 C         143.1314  140.3619  165.3713 C.ar    1  UNL1       -0.0040
      9 C         142.8300  139.3823  166.4666 C.ar    1  UNL1        0.0028
     10 C         142.5411  139.8740  167.8539 C.ar    1  UNL1        0.0372
     11 C         142.5537  141.3453  168.1460 C.ar    1  UNL1        0.1465
     12 C         142.8551  142.3249  167.0508 C.ar    1  UNL1        0.0329
     13 O         142.2648  141.8370  169.5334 O.3     1  UNL1       -0.4045
     14 C         141.4847  143.1025  169.7334 C.3     1  UNL1        0.5753
     15 F         140.7045  144.3680  169.9333 F       1  UNL1       -0.1328
     16 F         142.6597  143.7159  170.4355 F       1  UNL1       -0.1328
     17 F         140.3096  142.4890  169.0312 F       1  UNL1       -0.1328
     18 C         140.8766  145.2538  162.9845 C.3     1  UNL1        0.0730
     19 C         140.6695  145.5751  161.5341 C.3     1  UNL1        0.0294
     20 C         140.9512  144.5373  160.4883 C.3     1  UNL1        0.0666
     21 S         139.8744  143.5788  160.0737 S.3     1  UNL1       -0.0756
     22 C         138.6591  141.1111  162.8120 C.ar    1  UNL1        0.2029
     23 N         137.4230  141.9319  162.5923 N.ar    1  UNL1       -0.1250
     24 N         137.7278  142.9562  161.5398 N.ar    1  UNL1       -0.1220
     25 C         139.1523  142.7685  161.1090 C.ar    1  UNL1        0.1933
     26 N         139.7278  141.6281  161.8953 N.ar    1  UNL1       -0.2860
     27 C         141.1266  141.0978  161.7842 C.3     1  UNL1        0.1341
     28 C         139.4143  141.3654  165.9766 C.3     1  UNL1        0.0556
     29 C         139.1486  140.0899  165.2332 C.ar    1  UNL1        0.1001
     30 N         139.1833  138.7073  165.8141 N.ar    1  UNL1       -0.2085
     31 C         138.8576  137.7360  164.7184 C.ar    1  UNL1        0.2849
     32 O         138.6216  138.5182  163.4606 O.2     1  UNL1       -0.4283
     33 C         138.8015  139.9730  163.7787 C.ar    1  UNL1        0.1964
@<TRIPOS>BOND
     1    28    29    1
     2    29    30   ar
     3    30    31   ar
     4    31    32   ar
     5    32    33   ar
     6    33    22    1
     7    22    23   ar
     8    23    24   ar
     9    24    25   ar
    10    25    21    1
    11    21    20    1
    12    20    19    1
    13    19    18    1
    14    18     1    1
    15     1     2    1
    16     2     3    1
    17     3     4    1
    18     4     5    1
    19     5     7    1
    20     7     8   ar
    21     8     9   ar
    22     9    10   ar
    23    10    11   ar
    24    11    13    1
    25    13    14    1
    26    14    15    1
    27    14    16    1
    28    14    17    1
    29    11    12   ar
    30     5     6    1
    31    25    26   ar
    32    26    27    1
    33    33    29   ar
    34    26    22   ar
    35     6     1    1
    36     5     3    1
    37    12     7   ar
@<TRIPOS>MOLECULE
*****
 33 37 0 0 0
SMALL
GASTEIGER

@<TRIPOS>ATOM
      1 N         140.6163  144.5842  163.6288 N.3     1  UNL1       -0.2724
      2 C         139.3674  144.6546  162.8009 C.3     1  UNL1        0.0724
      3 C         138.4246  143.5969  163.2934 C.3     1  UNL1        0.0214
      4 C         137.7118  142.4755  163.9893 C.3     1  UNL1        0.0072
      5 C         139.0908  142.8728  164.4256 C.3     1  UNL1        0.0351
      6 C         140.4453  143.4830  164.6328 C.3     1  UNL1        0.0761
      7 C         139.2082  141.8547  165.5209 C.ar    1  UNL1       -0.0184
      8 C         138.5117  140.5324  165.3934 C.ar    1  UNL1       -0.0040
      9 C         138.6291  139.5142  166.4888 C.ar    1  UNL1        0.0028
     10 C         139.4430  139.8185  167.7115 C.ar    1  UNL1        0.0372
     11 C         140.1395  141.1409  167.8389 C.ar    1  UNL1        0.1465
     12 C         140.0221  142.1590  166.7436 C.ar    1  UNL1        0.0329
     13 O         140.9534  141.4452  169.0616 O.3     1  UNL1       -0.4045
     14 C         141.0402  142.8523  169.5738 C.3     1  UNL1        0.5753
     15 F         141.1269  144.2596  170.0859 F       1  UNL1       -0.1328
     16 F         142.4423  142.9561  169.0510 F       1  UNL1       -0.1328
     17 F         139.6380  142.7485  170.0965 F       1  UNL1       -0.1328
     18 C         141.8240  145.4611  163.4788 C.3     1  UNL1        0.0730
     19 C         143.1822  144.9344  163.8362 C.3     1  UNL1        0.0294
     20 C         144.0676  144.3588  162.7710 C.3     1  UNL1        0.0666
     21 S         144.4992  142.9243  162.8487 S.3     1  UNL1       -0.0756
     22 C         141.6570  140.3087  163.2306 C.ar    1  UNL1        0.2029
     23 N         142.3567  140.1712  164.5503 N.ar    1  UNL1       -0.1250
     24 N         143.5065  141.1343  164.5678 N.ar    1  UNL1       -0.1220
     25 C         143.5175  141.8670  163.2590 C.ar    1  UNL1        0.1933
     26 N         142.3744  141.3567  162.4326 N.ar    1  UNL1       -0.2860
     27 C         142.0123  141.8142  161.0507 C.3     1  UNL1        0.1341
     28 C         141.0877  137.1480  163.8100 C.3     1  UNL1        0.0556
     29 C         140.1899  138.0814  163.0532 C.ar    1  UNL1        0.1001
     30 N         138.8727  137.7257  162.4299 N.ar    1  UNL1       -0.2085
     31 C         138.3203  138.9587  161.7784 C.ar    1  UNL1        0.2849
     32 O         139.2960  140.0763  161.9990 O.2     1  UNL1       -0.4283
     33 C         140.4515  139.5341  162.7869 C.ar    1  UNL1        0.1964
@<TRIPOS>BOND
     1    28    29    1
     2    29    30   ar
     3    30    31   ar
     4    31    32   ar
     5    32    33   ar
     6    33    22    1
     7    22    23   ar
     8    23    24   ar
     9    24    25   ar
    10    25    21    1
    11    21    20    1
    12    20    19    1
    13    19    18    1
    14    18     1    1
    15     1     2    1
    16     2     3    1
    17     3     4    1
    18     4     5    1
    19     5     7    1
    20     7     8   ar
    21     8     9   ar
    22     9    10   ar
    23    10    11   ar
    24    11    13    1
    25    13    14    1
    26    14    15    1
    27    14    16    1
    28    14    17    1
    29    11    12   ar
    30     5     6    1
    31    25    26   ar
    32    26    27    1
    33    33    29   ar
    34    26    22   ar
    35     6     1    1
    36     5     3    1
    37    12     7   ar
@<TRIPOS>MOLECULE
*****
 33 37 0 0 0
SMALL
GASTEIGER

@<TRIPOS>ATOM
      1 N         140.6605  144.6963  162.5502 N.3     1  UNL1       -0.2724
      2 C         139.3266  145.2316  162.9795 C.3     1  UNL1        0.0724
      3 C         139.0470  144.7243  164.3631 C.3     1  UNL1        0.0214
      4 C         139.0462  144.0768  165.7161 C.3     1  UNL1        0.0072
      5 C         140.2080  143.8754  164.7890 C.3     1  UNL1        0.0351
      6 C         141.2052  143.8582  163.6686 C.3     1  UNL1        0.0761
      7 C         140.9957  142.9952  165.7135 C.ar    1  UNL1       -0.0184
      8 C         142.2354  142.3092  165.2210 C.ar    1  UNL1       -0.0040
      9 C         143.0231  141.4289  166.1456 C.ar    1  UNL1        0.0028
     10 C         142.5710  141.2346  167.5626 C.ar    1  UNL1        0.0372
     11 C         141.3313  141.9207  168.0551 C.ar    1  UNL1        0.1465
     12 C         140.5436  142.8009  167.1306 C.ar    1  UNL1        0.0329
     13 O         140.8792  141.7264  169.4721 O.3     1  UNL1       -0.4045
     14 C         139.5773  141.0378  169.7563 C.3     1  UNL1        0.5753
     15 F         138.2752  140.3492  170.0405 F       1  UNL1       -0.1328
     16 F         140.0811  139.8023  169.0710 F       1  UNL1       -0.1328
     17 F         139.0734  142.2734  170.4416 F       1  UNL1       -0.1328
     18 C         141.3317  144.9539  161.2338 C.3     1  UNL1        0.0730
     19 C         140.5085  145.2821  160.0236 C.3     1  UNL1        0.0294
     20 C         139.8603  144.1819  159.2366 C.3     1  UNL1        0.0666
     21 S         140.0049  142.7565  159.6808 S.3     1  UNL1       -0.0756
     22 C         138.5059  141.0231  162.8134 C.ar    1  UNL1        0.2029
     23 N         137.3533  141.8772  162.3754 N.ar    1  UNL1       -0.1250
     24 N         137.7745  142.6305  161.1486 N.ar    1  UNL1       -0.1220
     25 C         139.1875  142.2419  160.8284 C.ar    1  UNL1        0.1933
     26 N         139.6394  141.2485  161.8574 N.ar    1  UNL1       -0.2860
     27 C         140.9883  140.5952  161.9193 C.3     1  UNL1        0.1341
     28 C         138.7774  137.7724  162.7188 C.3     1  UNL1        0.0556
     29 C         138.6469  138.6107  163.9559 C.ar    1  UNL1        0.1001
     30 N         138.6182  138.1018  165.3667 N.ar    1  UNL1       -0.2085
     31 C         138.4756  139.2816  166.2820 C.ar    1  UNL1        0.2849
     32 O         138.4162  140.5194  165.4371 O.2     1  UNL1       -0.4283
     33 C         138.5221  140.1047  163.9994 C.ar    1  UNL1        0.1964
@<TRIPOS>BOND
     1    28    29    1
     2    29    30   ar
     3    30    31   ar
     4    31    32   ar
     5    32    33   ar
     6    33    22    1
     7    22    23   ar
     8    23    24   ar
     9    24    25   ar
    10    25    21    1
    11    21    20    1
    12    20    19    1
    13    19    18    1
    14    18     1    1
    15     1     2    1
    16     2     3    1
    17     3     4    1
    18     4     5    1
    19     5     7    1
    20     7     8   ar
    21     8     9   ar
    22     9    10   ar
    23    10    11   ar
    24    11    13    1
    25    13    14    1
    26    14    15    1
    27    14    16    1
    28    14    17    1
    29    11    12   ar
    30     5     6    1
    31    25    26   ar
    32    26    27    1
    33    33    29   ar
    34    26    22   ar
    35     6     1    1
    36     5     3    1
    37    12     7   ar
@<TRIPOS>MOLECULE
*****
 33 37 0 0 0
SMALL
GASTEIGER

@<TRIPOS>ATOM
      1 N         143.5176  142.6005  161.9663 N.3     1  UNL1       -0.2724
      2 C         144.2722  143.8306  162.3755 C.3     1  UNL1        0.0724
      3 C         143.3305  144.7231  163.1283 C.3     1  UNL1        0.0214
      4 C         142.1808  145.3875  163.8260 C.3     1  UNL1        0.0072
      5 C         141.9939  144.0447  163.1843 C.3     1  UNL1        0.0351
      6 C         142.1096  142.7328  162.4661 C.3     1  UNL1        0.0761
      7 C         140.5468  143.8962  163.5500 C.ar    1  UNL1       -0.0184
      8 C         139.9856  144.6573  164.7144 C.ar    1  UNL1       -0.0040
      9 C         138.5384  144.5089  165.0801 C.ar    1  UNL1        0.0028
     10 C         137.6525  143.5993  164.2815 C.ar    1  UNL1        0.0372
     11 C         138.2138  142.8381  163.1171 C.ar    1  UNL1        0.1465
     12 C         139.6609  142.9866  162.7514 C.ar    1  UNL1        0.0329
     13 O         137.3278  141.9285  162.3185 O.3     1  UNL1       -0.4045
     14 C         137.5459  140.4450  162.3575 C.3     1  UNL1        0.5753
     15 F         137.7640  138.9614  162.3967 F       1  UNL1       -0.1328
     16 F         137.5357  140.4040  160.8582 F       1  UNL1       -0.1328
     17 F         137.5561  140.4860  163.8570 F       1  UNL1       -0.1328
     18 C         144.0735  141.4416  161.1930 C.3     1  UNL1        0.0730
     19 C         143.8135  140.0383  161.6544 C.3     1  UNL1        0.0294
     20 C         144.1018  139.6502  163.0744 C.3     1  UNL1        0.0666
     21 S         143.1661  138.7342  163.8063 S.3     1  UNL1       -0.0756
     22 C         142.0308  139.5820  167.4197 C.ar    1  UNL1        0.2029
     23 N         143.2347  138.7280  167.6870 N.ar    1  UNL1       -0.1250
     24 N         143.8064  138.3065  166.3660 N.ar    1  UNL1       -0.1220
     25 C         142.9560  138.9000  165.2822 C.ar    1  UNL1        0.1933
     26 N         141.8586  139.6883  165.9335 N.ar    1  UNL1       -0.2860
     27 C         140.7786  140.4493  165.2232 C.3     1  UNL1        0.1341
     28 C         142.7987  142.1656  169.2596 C.3     1  UNL1        0.0556
     29 C         141.5062  141.4056  169.3024 C.ar    1  UNL1        0.1001
     30 N         140.3398  141.6997  170.1985 N.ar    1  UNL1       -0.2085
     31 C         139.2659  140.6939  169.9065 C.ar    1  UNL1        0.2849
     32 O         139.7686  139.7783  168.8302 O.2     1  UNL1       -0.4283
     33 C         141.1532  140.2181  168.4568 C.ar    1  UNL1        0.1964
@<TRIPOS>BOND
     1    28    29    1
     2    29    30   ar
     3    30    31   ar
     4    31    32   ar
     5    32    33   ar
     6    33    22    1
     7    22    23   ar
     8    23    24   ar
     9    24    25   ar
    10    25    21    1
    11    21    20    1
    12    20    19    1
    13    19    18    1
    14    18     1    1
    15     1     2    1
    16     2     3    1
    17     3     4    1
    18     4     5    1
    19     5     7    1
    20     7     8   ar
    21     8     9   ar
    22     9    10   ar
    23    10    11   ar
    24    11    13    1
    25    13    14    1
    26    14    15    1
    27    14    16    1
    28    14    17    1
    29    11    12   ar
    30     5     6    1
    31    25    26   ar
    32    26    27    1
    33    33    29   ar
    34    26    22   ar
    35     6     1    1
    36     5     3    1
    37    12     7   ar
@<TRIPOS>MOLECULE
*****
 33 37 0 0 0
SMALL
GASTEIGER

@<TRIPOS>ATOM
      1 N         138.2558  140.2292  163.4648 N.3     1  UNL1       -0.2724
      2 C         138.4416  138.8437  162.9210 C.3     1  UNL1        0.0724
      3 C         139.3986  138.1176  163.8193 C.3     1  UNL1        0.0214
      4 C         140.3587  137.6612  164.8776 C.3     1  UNL1        0.0072
      5 C         139.8042  139.0544  164.9183 C.3     1  UNL1        0.0351
      6 C         139.0979  140.3594  164.6992 C.3     1  UNL1        0.0761
      7 C         140.5304  139.4759  166.1613 C.ar    1  UNL1       -0.0184
      8 C         141.9355  139.0099  166.4034 C.ar    1  UNL1       -0.0040
      9 C         142.6618  139.4314  167.6464 C.ar    1  UNL1        0.0028
     10 C         141.9829  140.3188  168.6472 C.ar    1  UNL1        0.0372
     11 C         140.5778  140.7848  168.4050 C.ar    1  UNL1        0.1465
     12 C         139.8516  140.3633  167.1621 C.ar    1  UNL1        0.0329
     13 O         139.8989  141.6722  169.4059 O.3     1  UNL1       -0.4045
     14 C         140.4819  143.0145  169.7352 C.3     1  UNL1        0.5753
     15 F         141.0648  144.3569  170.0644 F       1  UNL1       -0.1328
     16 F         140.8497  142.5193  171.1024 F       1  UNL1       -0.1328
     17 F         140.1140  143.5096  168.3678 F       1  UNL1       -0.1328
     18 C         137.3814  141.2971  162.8773 C.3     1  UNL1        0.0730
     19 C         137.2956  142.6423  163.5352 C.3     1  UNL1        0.0294
     20 C         137.6901  143.8747  162.7766 C.3     1  UNL1        0.0666
     21 S         138.9993  144.5471  163.0667 S.3     1  UNL1       -0.0756
     22 C         141.9716  142.2374  164.0130 C.ar    1  UNL1        0.2029
     23 N         141.7038  142.9167  165.3233 N.ar    1  UNL1       -0.1250
     24 N         140.5578  143.8645  165.1283 N.ar    1  UNL1       -0.1220
     25 C         140.1173  143.7711  163.6975 C.ar    1  UNL1        0.1933
     26 N         140.9911  142.7655  163.0083 N.ar    1  UNL1       -0.2860
     27 C         140.9003  142.3593  161.5671 C.3     1  UNL1        0.1341
     28 C         145.1667  142.5984  164.5707 C.3     1  UNL1        0.0556
     29 C         144.5021  141.3763  164.0096 C.ar    1  UNL1        0.1001
     30 N         145.1895  140.1055  163.6062 N.ar    1  UNL1       -0.2085
     31 C         144.1458  139.1543  163.1006 C.ar    1  UNL1        0.2849
     32 O         142.8134  139.8371  163.1915 O.2     1  UNL1       -0.4283
     33 C         143.0336  141.2103  163.7532 C.ar    1  UNL1        0.1964
@<TRIPOS>BOND
     1    28    29    1
     2    29    30   ar
     3    30    31   ar
     4    31    32   ar
     5    32    33   ar
     6    33    22    1
     7    22    23   ar
     8    23    24   ar
     9    24    25   ar
    10    25    21    1
    11    21    20    1
    12    20    19    1
    13    19    18    1
    14    18     1    1
    15     1     2    1
    16     2     3    1
    17     3     4    1
    18     4     5    1
    19     5     7    1
    20     7     8   ar
    21     8     9   ar
    22     9    10   ar
    23    10    11   ar
    24    11    13    1
    25    13    14    1
    26    14    15    1
    27    14    16    1
    28    14    17    1
    29    11    12   ar
    30     5     6    1
    31    25    26   ar
    32    26    27    1
    33    33    29   ar
    34    26    22   ar
    35     6     1    1
    36     5     3    1
    37    12     7   ar
@<TRIPOS>MOLECULE
*****
 33 37 0 0 0
SMALL
GASTEIGER

@<TRIPOS>ATOM
      1 N         142.4993  144.4573  163.7986 N.3     1  UNL1       -0.2724
      2 C         143.7889  144.2671  163.0564 C.3     1  UNL1        0.0724
      3 C         144.4849  143.0711  163.6353 C.3     1  UNL1        0.0214
      4 C         144.9308  141.8621  164.4030 C.3     1  UNL1        0.0072
      5 C         143.6255  142.5221  164.7353 C.3     1  UNL1        0.0351
      6 C         142.3983  143.3788  164.8362 C.3     1  UNL1        0.0761
      7 C         143.2516  141.5816  165.8424 C.ar    1  UNL1       -0.0184
      8 C         143.2223  140.1029  165.5924 C.ar    1  UNL1       -0.0040
      9 C         142.8484  139.1623  166.6996 C.ar    1  UNL1        0.0028
     10 C         142.5038  139.7006  168.0566 C.ar    1  UNL1        0.0372
     11 C         142.5331  141.1794  168.3066 C.ar    1  UNL1        0.1465
     12 C         142.9070  142.1199  167.1995 C.ar    1  UNL1        0.0329
     13 O         142.1885  141.7176  169.6636 O.3     1  UNL1       -0.4045
     14 C         141.5352  143.0616  169.7937 C.3     1  UNL1        0.5753
     15 F         140.8819  144.4056  169.9238 F       1  UNL1       -0.1328
     16 F         140.2932  142.5201  169.1501 F       1  UNL1       -0.1328
     17 F         142.7773  143.6030  170.4373 F       1  UNL1       -0.1328
     18 C         141.4882  145.5365  163.5473 C.3     1  UNL1        0.0730
     19 C         140.2289  145.2239  162.7948 C.3     1  UNL1        0.0294
     20 C         140.2601  145.0966  161.3005 C.3     1  UNL1        0.0666
     21 S         140.1848  143.7415  160.6615 S.3     1  UNL1       -0.0756
     22 C         140.2932  140.6352  162.9861 C.ar    1  UNL1        0.2029
     23 N         141.6807  140.6194  162.4163 N.ar    1  UNL1       -0.1250
     24 N         141.8089  141.7810  161.4762 N.ar    1  UNL1       -0.1220
     25 C         140.5008  142.5149  161.4649 C.ar    1  UNL1        0.1933
     26 N         139.5640  141.8066  162.3981 N.ar    1  UNL1       -0.2860
     27 C         138.1468  142.2008  162.6917 C.3     1  UNL1        0.1341
     28 C         139.5244  141.2610  166.0953 C.3     1  UNL1        0.0556
     29 C         139.3799  139.9397  165.4000 C.ar    1  UNL1        0.1001
     30 N         138.8567  138.6741  166.0120 N.ar    1  UNL1       -0.2085
     31 C         138.8867  137.6042  164.9610 C.ar    1  UNL1        0.2849
     32 O         139.4284  138.2086  163.6997 O.2     1  UNL1       -0.4283
     33 C         139.7333  139.6520  163.9710 C.ar    1  UNL1        0.1964
@<TRIPOS>BOND
     1    28    29    1
     2    29    30   ar
     3    30    31   ar
     4    31    32   ar
     5    32    33   ar
     6    33    22    1
     7    22    23   ar
     8    23    24   ar
     9    24    25   ar
    10    25    21    1
    11    21    20    1
    12    20    19    1
    13    19    18    1
    14    18     1    1
    15     1     2    1
    16     2     3    1
    17     3     4    1
    18     4     5    1
    19     5     7    1
    20     7     8   ar
    21     8     9   ar
    22     9    10   ar
    23    10    11   ar
    24    11    13    1
    25    13    14    1
    26    14    15    1
    27    14    16    1
    28    14    17    1
    29    11    12   ar
    30     5     6    1
    31    25    26   ar
    32    26    27    1
    33    33    29   ar
    34    26    22   ar
    35     6     1    1
    36     5     3    1
    37    12     7   ar
@<TRIPOS>MOLECULE
*****
 33 37 0 0 0
SMALL
GASTEIGER

@<TRIPOS>ATOM
      1 N         142.7130  143.9047  162.3946 N.3     1  UNL1       -0.2724
      2 C         143.7179  144.8128  163.0393 C.3     1  UNL1        0.0724
      3 C         144.1186  144.2042  164.3504 C.3     1  UNL1        0.0214
      4 C         144.3179  143.3693  165.5805 C.3     1  UNL1        0.0072
      5 C         143.3614  142.9200  164.5161 C.3     1  UNL1        0.0351
      6 C         142.4927  142.7349  163.3073 C.3     1  UNL1        0.0761
      7 C         142.9411  141.6563  165.2063 C.ar    1  UNL1       -0.0184
      8 C         142.9512  140.3552  164.4600 C.ar    1  UNL1       -0.0040
      9 C         142.5308  139.0914  165.1501 C.ar    1  UNL1        0.0028
     10 C         142.1004  139.1288  166.5866 C.ar    1  UNL1        0.0372
     11 C         142.0903  140.4300  167.3329 C.ar    1  UNL1        0.1465
     12 C         142.5106  141.6937  166.6427 C.ar    1  UNL1        0.0329
     13 O         141.6599  140.4675  168.7693 O.3     1  UNL1       -0.4045
     14 C         140.2296  140.1966  169.1310 C.3     1  UNL1        0.5753
     15 F         138.7992  139.9257  169.4926 F       1  UNL1       -0.1328
     16 F         140.6814  139.3400  170.2764 F       1  UNL1       -0.1328
     17 F         139.7777  141.0532  167.9854 F       1  UNL1       -0.1328
     18 C         142.0457  144.1273  161.0698 C.3     1  UNL1        0.0730
     19 C         140.6042  144.5387  161.0159 C.3     1  UNL1        0.0294
     20 C         140.0198  145.3703  162.1189 C.3     1  UNL1        0.0666
     21 S         138.7650  144.9250  162.8097 S.3     1  UNL1       -0.0756
     22 C         138.2088  141.1679  163.6094 C.ar    1  UNL1        0.2029
     23 N         137.5393  141.2818  162.2720 N.ar    1  UNL1       -0.1250
     24 N         137.6661  142.7030  161.8096 N.ar    1  UNL1       -0.1220
     25 C         138.4140  143.4676  162.8613 C.ar    1  UNL1        0.1933
     26 N         138.7494  142.5188  163.9736 N.ar    1  UNL1       -0.2860
     27 C         139.4947  142.8609  165.2297 C.3     1  UNL1        0.1341
     28 C         139.5209  138.3376  162.6513 C.3     1  UNL1        0.0556
     29 C         138.9215  138.6210  163.9969 C.ar    1  UNL1        0.1001
     30 N         138.8201  137.6530  165.1383 N.ar    1  UNL1       -0.2085
     31 C         138.1543  138.3558  166.2841 C.ar    1  UNL1        0.2849
     32 O         137.8443  139.7579  165.8509 O.2     1  UNL1       -0.4283
     33 C         138.3185  139.9218  164.4373 C.ar    1  UNL1        0.1964
@<TRIPOS>BOND
     1    28    29    1
     2    29    30   ar
     3    30    31   ar
     4    31    32   ar
     5    32    33   ar
     6    33    22    1
     7    22    23   ar
     8    23    24   ar
     9    24    25   ar
    10    25    21    1
    11    21    20    1
    12    20    19    1
    13    19    18    1
    14    18     1    1
    15     1     2    1
    16     2     3    1
    17     3     4    1
    18     4     5    1
    19     5     7    1
    20     7     8   ar
    21     8     9   ar
    22     9    10   ar
    23    10    11   ar
    24    11    13    1
    25    13    14    1
    26    14    15    1
    27    14    16    1
    28    14    17    1
    29    11    12   ar
    30     5     6    1
    31    25    26   ar
    32    26    27    1
    33    33    29   ar
    34    26    22   ar
    35     6     1    1
    36     5     3    1
    37    12     7   ar
@<TRIPOS>MOLECULE
*****
 33 37 0 0 0
SMALL
GASTEIGER

@<TRIPOS>ATOM
      1 N         143.2770  143.3608  162.6349 N.3     1  UNL1       -0.2724
      2 C         144.6887  143.1661  162.1666 C.3     1  UNL1        0.0724
      3 C         145.3131  142.0941  163.0098 C.3     1  UNL1        0.0214
      4 C         145.6574  141.0156  163.9938 C.3     1  UNL1        0.0072
      5 C         144.2873  141.6262  163.9992 C.3     1  UNL1        0.0351
      6 C         143.0290  142.4091  163.7675 C.3     1  UNL1        0.0761
      7 C         143.7528  140.8021  165.1328 C.ar    1  UNL1       -0.0184
      8 C         143.9457  139.3146  165.1348 C.ar    1  UNL1       -0.0040
      9 C         143.4112  138.4905  166.2685 C.ar    1  UNL1        0.0028
     10 C         142.6838  139.1540  167.4002 C.ar    1  UNL1        0.0372
     11 C         142.4910  140.6416  167.3982 C.ar    1  UNL1        0.1465
     12 C         143.0255  141.4656  166.2646 C.ar    1  UNL1        0.0329
     13 O         141.7637  141.3051  168.5300 O.3     1  UNL1       -0.4045
     14 C         140.8845  142.4909  168.2638 C.3     1  UNL1        0.5753
     15 F         140.0052  143.6767  167.9976 F       1  UNL1       -0.1328
     16 F         141.7482  143.3317  169.1565 F       1  UNL1       -0.1328
     17 F         140.0207  141.6500  167.3711 F       1  UNL1       -0.1328
     18 C         142.2872  144.3360  162.0698 C.3     1  UNL1        0.0730
     19 C         141.3183  145.0327  162.9785 C.3     1  UNL1        0.0294
     20 C         140.1308  145.7461  162.4033 C.3     1  UNL1        0.0666
     21 S         138.7445  145.2598  162.7063 S.3     1  UNL1       -0.0756
     22 C         138.3511  141.4562  163.3713 C.ar    1  UNL1        0.2029
     23 N         138.0772  142.0186  164.7346 N.ar    1  UNL1       -0.1250
     24 N         138.1912  143.5119  164.6514 N.ar    1  UNL1       -0.1220
     25 C         138.5356  143.8724  163.2367 C.ar    1  UNL1        0.1933
     26 N         138.6344  142.6018  162.4456 N.ar    1  UNL1       -0.2860
     27 C         138.9595  142.4957  160.9850 C.3     1  UNL1        0.1341
     28 C         139.9165  139.0642  164.9454 C.3     1  UNL1        0.0556
     29 C         139.0626  138.9036  163.7226 C.ar    1  UNL1        0.1001
     30 N         138.7784  137.6154  163.0087 N.ar    1  UNL1       -0.2085
     31 C         137.8832  137.9187  161.8440 C.ar    1  UNL1        0.2849
     32 O         137.6142  139.3943  161.8380 O.2     1  UNL1       -0.4283
     33 C         138.3431  140.0030  162.9991 C.ar    1  UNL1        0.1964
@<TRIPOS>BOND
     1    28    29    1
     2    29    30   ar
     3    30    31   ar
     4    31    32   ar
     5    32    33   ar
     6    33    22    1
     7    22    23   ar
     8    23    24   ar
     9    24    25   ar
    10    25    21    1
    11    21    20    1
    12    20    19    1
    13    19    18    1
    14    18     1    1
    15     1     2    1
    16     2     3    1
    17     3     4    1
    18     4     5    1
    19     5     7    1
    20     7     8   ar
    21     8     9   ar
    22     9    10   ar
    23    10    11   ar
    24    11    13    1
    25    13    14    1
    26    14    15    1
    27    14    16    1
    28    14    17    1
    29    11    12   ar
    30     5     6    1
    31    25    26   ar
    32    26    27    1
    33    33    29   ar
    34    26    22   ar
    35     6     1    1
    36     5     3    1
    37    12     7   ar
