@<TRIPOS>MOLECULE
*****
 34 38 0 0 0
SMALL
GASTEIGER

@<TRIPOS>ATOM
      1 C         140.9300  140.3510  166.9281 C.2     1  UNL1        0.3308
      2 N         142.0235  140.7462  165.9804 N.2     1  UNL1       -0.0045
      3 C         143.0420  141.7667  166.3942 C.2     1  UNL1        0.3072
      4 C         142.9671  142.3919  167.7556 C.3     1  UNL1        0.1631
      5 C         141.8736  141.9966  168.7033 C.2     1  UNL1        0.0844
      6 N         141.7987  142.6218  170.0647 N.2     1  UNL1       -0.2296
      7 C         140.7052  142.2265  171.0124 C.2     1  UNL1        0.1880
      8 N         139.6867  141.2061  170.5986 N.am    1  UNL1       -0.1535
      9 C         139.7616  140.5809  169.2372 C.2     1  UNL1        0.2788
     10 O         138.7431  139.5604  168.8234 O.2     1  UNL1       -0.2677
     11 C         140.8551  140.9762  168.2896 C.2     1  UNL1        0.1515
     12 N         139.9115  139.3305  166.5143 N.pl3   1  UNL1       -0.2134
     13 H         139.2777  138.9711  167.1764 H       1  UNL1        0.2928
     14 C         137.5746  139.8204  160.4910 C.3     1  UNL1        0.0327
     15 C         137.9357  139.9405  161.9419 C.2     1  UNL1       -0.0015
     16 C         137.3873  140.9502  162.9063 C.2     1  UNL1        0.0944
     17 N         138.0212  140.7057  164.2436 N.2     1  UNL1       -0.2442
     18 C         138.9613  139.5450  164.1058 C.2     1  UNL1        0.1052
     19 C         139.8586  138.8576  165.0918 C.3     1  UNL1        0.2198
     20 C         140.7031  137.6972  164.6553 C.2     1  UNL1        0.0258
     21 C         140.6502  137.2243  163.2328 C.2     1  UNL1       -0.0002
     22 C         139.7529  137.9118  162.2468 C.2     1  UNL1        0.0009
     23 C         138.9084  139.0721  162.6832 C.2     1  UNL1        0.0153
     24 N         144.1355  142.1620  165.4465 N.pl3   1  UNL1       -0.2243
     25 H         145.0771  142.0948  165.7258 H       1  UNL1        0.2918
     26 C         143.7942  142.6597  164.0732 C.3     1  UNL1        0.1704
     27 C         142.4681  143.3135  163.8205 C.3     1  UNL1        0.0478
     28 C         142.1269  143.8112  162.4473 C.3     1  UNL1        0.0042
     29 C         143.1118  143.6550  161.3267 C.3     1  UNL1        0.0016
     30 C         144.4379  143.0012  161.5794 C.3     1  UNL1        0.0196
     31 C         144.7791  142.5035  162.9527 C.3     1  UNL1        0.0939
     32 N         146.1053  141.8496  163.2055 N.3     1  UNL1       -0.3190
     33 H         146.6441  141.8278  162.3397 H       1  UNL1        0.1189
     34 H         145.9567  140.8967  163.5376 H       1  UNL1        0.1189
@<TRIPOS>BOND
     1    14    15    1
     2    15    16    2
     3    16    17    1
     4    17    18    2
     5    18    19    1
     6    19    12    1
     7    12     1    1
     8     1     2    1
     9     2     3    2
    10     3    24    1
    11    26    24    1
    12    26    27    1
    13    27    28    1
    14    28    29    1
    15    29    30    1
    16    30    31    1
    17    31    32    1
    18     3     4    1
    19     4     5    1
    20     5     6    2
    21     6     7    1
    22     7     8    2
    23     8     9    1
    24     9    10    2
    25     9    11    1
    26    19    20    1
    27    20    21    2
    28    21    22    1
    29    22    23    2
    30    23    15    1
    31    23    18    1
    32    11     1    2
    33    31    26    1
    34    11     5    1
    35    12    13    1
    36    24    25    1
    37    32    33    1
    38    32    34    1
@<TRIPOS>MOLECULE
*****
 34 38 0 0 0
SMALL
GASTEIGER

@<TRIPOS>ATOM
      1 C         141.4691  141.7713  166.4424 C.2     1  UNL1        0.3308
      2 N         140.3031  141.2901  165.6309 N.2     1  UNL1       -0.0045
      3 C         139.2631  140.4112  166.2602 C.2     1  UNL1        0.3072
      4 C         139.3891  140.0137  167.7010 C.3     1  UNL1        0.1631
      5 C         140.5552  140.4949  168.5126 C.2     1  UNL1        0.0844
      6 N         140.6812  140.0973  169.9534 N.2     1  UNL1       -0.2296
      7 C         141.8473  140.5786  170.7650 C.2     1  UNL1        0.1880
      8 N         142.8873  141.4575  170.1357 N.am    1  UNL1       -0.1535
      9 C         142.7613  141.8550  168.6949 C.2     1  UNL1        0.2788
     10 O         143.8013  142.7339  168.0656 O.2     1  UNL1       -0.2677
     11 C         141.5952  141.3738  167.8833 C.2     1  UNL1        0.1515
     12 N         142.5092  142.6502  165.8132 N.pl3   1  UNL1       -0.2134
     13 H         142.6891  143.5438  166.1851 H       1  UNL1        0.2928
     14 C         143.7754  142.8676  159.4625 C.3     1  UNL1        0.0327
     15 C         143.2815  143.0313  160.8694 C.2     1  UNL1       -0.0015
     16 C         142.2157  143.9836  161.3245 C.2     1  UNL1        0.0944
     17 N         142.0421  143.8122  162.8045 N.2     1  UNL1       -0.2442
     18 C         143.0007  142.7540  163.2641 C.2     1  UNL1        0.1052
     19 C         143.2751  142.1675  164.6172 C.3     1  UNL1        0.2198
     20 C         144.3154  141.0983  164.7742 C.2     1  UNL1        0.0258
     21 C         145.0813  140.6157  163.5783 C.2     1  UNL1       -0.0002
     22 C         144.8070  141.2022  162.2252 C.2     1  UNL1        0.0009
     23 C         143.7667  142.2713  162.0681 C.2     1  UNL1        0.0153
     24 N         138.0970  139.9300  165.4485 N.pl3   1  UNL1       -0.2243
     25 H         137.1916  139.9370  165.8353 H       1  UNL1        0.2918
     26 C         138.3102  139.4380  164.0477 C.3     1  UNL1        0.1704
     27 C         139.1594  138.2268  163.7992 C.3     1  UNL1        0.0478
     28 C         139.3727  137.7349  162.3983 C.3     1  UNL1        0.0042
     29 C         138.7367  138.4542  161.2458 C.3     1  UNL1        0.0016
     30 C         137.8875  139.6655  161.4943 C.3     1  UNL1        0.0196
     31 C         137.6743  140.1574  162.8953 C.3     1  UNL1        0.0939
     32 N         136.8251  141.3686  163.1437 N.3     1  UNL1       -0.3190
     33 H         136.4761  141.7273  162.2549 H       1  UNL1        0.1189
     34 H         137.3838  142.0869  163.6045 H       1  UNL1        0.1189
@<TRIPOS>BOND
     1    14    15    1
     2    15    16    2
     3    16    17    1
     4    17    18    2
     5    18    19    1
     6    19    12    1
     7    12     1    1
     8     1     2    1
     9     2     3    2
    10     3    24    1
    11    26    24    1
    12    26    27    1
    13    27    28    1
    14    28    29    1
    15    29    30    1
    16    30    31    1
    17    31    32    1
    18     3     4    1
    19     4     5    1
    20     5     6    2
    21     6     7    1
    22     7     8    2
    23     8     9    1
    24     9    10    2
    25     9    11    1
    26    19    20    1
    27    20    21    2
    28    21    22    1
    29    22    23    2
    30    23    15    1
    31    23    18    1
    32    11     1    2
    33    31    26    1
    34    11     5    1
    35    12    13    1
    36    24    25    1
    37    32    33    1
    38    32    34    1
@<TRIPOS>MOLECULE
*****
 34 38 0 0 0
SMALL
GASTEIGER

@<TRIPOS>ATOM
      1 C         140.7414  139.4476  161.0317 C.2     1  UNL1        0.3308
      2 N         139.7262  140.4978  161.3726 N.2     1  UNL1       -0.0045
      3 C         139.4657  141.6266  160.4196 C.2     1  UNL1        0.3072
      4 C         140.2205  141.7051  159.1258 C.3     1  UNL1        0.1631
      5 C         141.2358  140.6548  158.7848 C.2     1  UNL1        0.0844
      6 N         141.9905  140.7333  157.4909 N.2     1  UNL1       -0.2296
      7 C         143.0057  139.6830  157.1500 C.2     1  UNL1        0.1880
      8 N         143.2662  138.5543  158.1029 N.am    1  UNL1       -0.1535
      9 C         142.5114  138.4758  159.3968 C.2     1  UNL1        0.2788
     10 O         142.7719  137.3470  160.3497 O.2     1  UNL1       -0.2677
     11 C         141.4962  139.5260  159.7377 C.2     1  UNL1        0.1515
     12 N         141.0018  138.3188  161.9846 N.pl3   1  UNL1       -0.2134
     13 H         140.9194  137.3869  161.6781 H       1  UNL1        0.2928
     14 C         139.3903  139.9206  168.0524 C.3     1  UNL1        0.0327
     15 C         139.4683  139.5700  166.5961 C.2     1  UNL1       -0.0015
     16 C         138.3092  139.4747  165.6488 C.2     1  UNL1        0.0944
     17 N         138.8437  139.0989  164.2986 N.2     1  UNL1       -0.2442
     18 C         140.3332  138.9621  164.4113 C.2     1  UNL1        0.1052
     19 C         141.3878  138.6100  163.4045 C.3     1  UNL1        0.2198
     20 C         142.8286  138.5490  163.8177 C.2     1  UNL1        0.0258
     21 C         143.2146  138.8402  165.2376 C.2     1  UNL1       -0.0002
     22 C         142.1599  139.1923  166.2444 C.2     1  UNL1        0.0009
     23 C         140.7192  139.2533  165.8313 C.2     1  UNL1        0.0153
     24 N         138.4505  142.6769  160.7606 N.pl3   1  UNL1       -0.2243
     25 H         137.8175  142.9906  160.0750 H       1  UNL1        0.2918
     26 C         138.3997  143.2491  162.1462 C.3     1  UNL1        0.1704
     27 C         139.1461  144.5107  162.4645 C.3     1  UNL1        0.0478
     28 C         139.0953  145.0829  163.8501 C.3     1  UNL1        0.0042
     29 C         138.2981  144.3936  164.9175 C.3     1  UNL1        0.0016
     30 C         137.5517  143.1320  164.5992 C.3     1  UNL1        0.0196
     31 C         137.6025  142.5598  163.2136 C.3     1  UNL1        0.0939
     32 N         136.8561  141.2982  162.8953 N.3     1  UNL1       -0.3190
     33 H         136.3730  140.9689  163.7311 H       1  UNL1        0.1189
     34 H         137.5131  140.5850  162.5791 H       1  UNL1        0.1189
@<TRIPOS>BOND
     1    14    15    1
     2    15    16    2
     3    16    17    1
     4    17    18    2
     5    18    19    1
     6    19    12    1
     7    12     1    1
     8     1     2    1
     9     2     3    2
    10     3    24    1
    11    26    24    1
    12    26    27    1
    13    27    28    1
    14    28    29    1
    15    29    30    1
    16    30    31    1
    17    31    32    1
    18     3     4    1
    19     4     5    1
    20     5     6    2
    21     6     7    1
    22     7     8    2
    23     8     9    1
    24     9    10    2
    25     9    11    1
    26    19    20    1
    27    20    21    2
    28    21    22    1
    29    22    23    2
    30    23    15    1
    31    23    18    1
    32    11     1    2
    33    31    26    1
    34    11     5    1
    35    12    13    1
    36    24    25    1
    37    32    33    1
    38    32    34    1
@<TRIPOS>MOLECULE
*****
 34 38 0 0 0
SMALL
GASTEIGER

@<TRIPOS>ATOM
      1 C         140.6273  140.8755  166.9174 C.2     1  UNL1        0.3308
      2 N         141.6887  141.5989  166.1429 N.2     1  UNL1       -0.0045
      3 C         142.8237  142.2622  166.8653 C.2     1  UNL1        0.3072
      4 C         142.8972  142.2021  168.3622 C.3     1  UNL1        0.1631
      5 C         141.8357  141.4786  169.1369 C.2     1  UNL1        0.0844
      6 N         141.9093  141.4185  170.6338 N.2     1  UNL1       -0.2296
      7 C         140.8478  140.6951  171.4084 C.2     1  UNL1        0.1880
      8 N         139.7129  140.0318  170.6859 N.am    1  UNL1       -0.1535
      9 C         139.6393  140.0919  169.1890 C.2     1  UNL1        0.2788
     10 O         138.5044  139.4286  168.4666 O.2     1  UNL1       -0.2677
     11 C         140.7008  140.8153  168.4144 C.2     1  UNL1        0.1515
     12 N         139.4923  140.2122  166.1950 N.pl3   1  UNL1       -0.2134
     13 H         139.1434  139.3486  166.5140 H       1  UNL1        0.2928
     14 C         137.2540  139.8655  160.1245 C.3     1  UNL1        0.0327
     15 C         137.8234  139.6520  161.4957 C.2     1  UNL1       -0.0015
     16 C         138.3198  138.3501  162.0513 C.2     1  UNL1        0.0944
     17 N         138.7995  138.5963  163.4510 N.2     1  UNL1       -0.2442
     18 C         138.5996  140.0503  163.7605 C.2     1  UNL1        0.1052
     19 C         138.8890  140.8646  164.9865 C.3     1  UNL1        0.2198
     20 C         138.5750  142.3313  165.0041 C.2     1  UNL1        0.0258
     21 C         137.9717  142.9837  163.7957 C.2     1  UNL1       -0.0002
     22 C         137.6823  142.1695  162.5696 C.2     1  UNL1        0.0009
     23 C         137.9963  140.7028  162.5520 C.2     1  UNL1        0.0153
     24 N         143.8852  142.9856  166.0906 N.pl3   1  UNL1       -0.2243
     25 H         144.3692  143.7374  166.5028 H       1  UNL1        0.2918
     26 C         144.2091  142.5637  164.6882 C.3     1  UNL1        0.1704
     27 C         144.6150  141.1476  164.4058 C.3     1  UNL1        0.0478
     28 C         144.9390  140.7257  163.0033 C.3     1  UNL1        0.0042
     29 C         144.8570  141.7199  161.8831 C.3     1  UNL1        0.0016
     30 C         144.4511  143.1361  162.1655 C.3     1  UNL1        0.0196
     31 C         144.1271  143.5580  163.5680 C.3     1  UNL1        0.0939
     32 N         143.7212  144.9741  163.8504 N.3     1  UNL1       -0.3190
     33 H         143.7187  145.5070  162.9807 H       1  UNL1        0.1189
     34 H         144.3824  145.3934  164.5042 H       1  UNL1        0.1189
@<TRIPOS>BOND
     1    14    15    1
     2    15    16    2
     3    16    17    1
     4    17    18    2
     5    18    19    1
     6    19    12    1
     7    12     1    1
     8     1     2    1
     9     2     3    2
    10     3    24    1
    11    26    24    1
    12    26    27    1
    13    27    28    1
    14    28    29    1
    15    29    30    1
    16    30    31    1
    17    31    32    1
    18     3     4    1
    19     4     5    1
    20     5     6    2
    21     6     7    1
    22     7     8    2
    23     8     9    1
    24     9    10    2
    25     9    11    1
    26    19    20    1
    27    20    21    2
    28    21    22    1
    29    22    23    2
    30    23    15    1
    31    23    18    1
    32    11     1    2
    33    31    26    1
    34    11     5    1
    35    12    13    1
    36    24    25    1
    37    32    33    1
    38    32    34    1
@<TRIPOS>MOLECULE
*****
 34 38 0 0 0
SMALL
GASTEIGER

@<TRIPOS>ATOM
      1 C         140.8759  141.0986  159.8833 C.2     1  UNL1        0.3308
      2 N         141.9490  141.9756  160.4571 N.2     1  UNL1       -0.0045
      3 C         143.3909  141.6889  160.1593 C.2     1  UNL1        0.3072
      4 C         143.7597  140.5252  159.2877 C.3     1  UNL1        0.1631
      5 C         142.6866  139.6481  158.7139 C.2     1  UNL1        0.0844
      6 N         143.0553  138.4844  157.8423 N.2     1  UNL1       -0.2296
      7 C         141.9822  137.6074  157.2685 C.2     1  UNL1        0.1880
      8 N         140.5403  137.8941  157.5663 N.am    1  UNL1       -0.1535
      9 C         140.1715  139.0578  158.4379 C.2     1  UNL1        0.2788
     10 O         138.7296  139.3445  158.7358 O.2     1  UNL1       -0.2677
     11 C         141.2446  139.9348  159.0117 C.2     1  UNL1        0.1515
     12 N         139.4340  141.3853  160.1812 N.pl3   1  UNL1       -0.2134
     13 H         138.7902  141.4894  159.4436 H       1  UNL1        0.2928
     14 C         138.5342  144.9448  165.5198 C.3     1  UNL1        0.0327
     15 C         138.8516  144.3757  164.1688 C.2     1  UNL1       -0.0015
     16 C         139.4552  145.1231  163.0168 C.2     1  UNL1        0.0944
     17 N         139.5977  144.1685  161.8686 N.2     1  UNL1       -0.2442
     18 C         139.0821  142.8312  162.3108 C.2     1  UNL1        0.1052
     19 C         138.9729  141.5134  161.6028 C.3     1  UNL1        0.2198
     20 C         138.4025  140.3236  162.3163 C.2     1  UNL1        0.0258
     21 C         137.9414  140.4516  163.7379 C.2     1  UNL1       -0.0002
     22 C         138.0506  141.7694  164.4460 C.2     1  UNL1        0.0009
     23 C         138.6209  142.9592  163.7325 C.2     1  UNL1        0.0153
     24 N         144.4640  142.5660  160.7331 N.pl3   1  UNL1       -0.2243
     25 H         145.1907  142.8959  160.1566 H       1  UNL1        0.2918
     26 C         144.4300  142.9403  162.1852 C.3     1  UNL1        0.1704
     27 C         145.2355  142.1587  163.1803 C.3     1  UNL1        0.0478
     28 C         145.2015  142.5331  164.6324 C.3     1  UNL1        0.0042
     29 C         144.3619  143.6891  165.0895 C.3     1  UNL1        0.0016
     30 C         143.5564  144.4707  164.0943 C.3     1  UNL1        0.0196
     31 C         143.5904  144.0963  162.6422 C.3     1  UNL1        0.0939
     32 N         142.7849  144.8779  161.6470 N.3     1  UNL1       -0.3190
     33 H         142.2790  145.6215  162.1281 H       1  UNL1        0.1189
     34 H         142.1197  144.2574  161.1857 H       1  UNL1        0.1189
@<TRIPOS>BOND
     1    14    15    1
     2    15    16    2
     3    16    17    1
     4    17    18    2
     5    18    19    1
     6    19    12    1
     7    12     1    1
     8     1     2    1
     9     2     3    2
    10     3    24    1
    11    26    24    1
    12    26    27    1
    13    27    28    1
    14    28    29    1
    15    29    30    1
    16    30    31    1
    17    31    32    1
    18     3     4    1
    19     4     5    1
    20     5     6    2
    21     6     7    1
    22     7     8    2
    23     8     9    1
    24     9    10    2
    25     9    11    1
    26    19    20    1
    27    20    21    2
    28    21    22    1
    29    22    23    2
    30    23    15    1
    31    23    18    1
    32    11     1    2
    33    31    26    1
    34    11     5    1
    35    12    13    1
    36    24    25    1
    37    32    33    1
    38    32    34    1
@<TRIPOS>MOLECULE
*****
 34 38 0 0 0
SMALL
GASTEIGER

@<TRIPOS>ATOM
      1 C         140.2875  141.4700  159.9533 C.2     1  UNL1        0.3308
      2 N         141.4735  142.2500  160.4379 N.2     1  UNL1       -0.0045
      3 C         142.8584  141.8346  160.0385 C.2     1  UNL1        0.3072
      4 C         143.0573  140.6392  159.1545 C.3     1  UNL1        0.1631
      5 C         141.8712  139.8592  158.6699 C.2     1  UNL1        0.0844
      6 N         142.0701  138.6638  157.7859 N.2     1  UNL1       -0.2296
      7 C         140.8841  137.8838  157.3013 C.2     1  UNL1        0.1880
      8 N         139.4992  138.2991  157.7007 N.am    1  UNL1       -0.1535
      9 C         139.3003  139.4945  158.5846 C.2     1  UNL1        0.2788
     10 O         137.9154  139.9099  158.9840 O.2     1  UNL1       -0.2677
     11 C         140.4863  140.2745  159.0692 C.2     1  UNL1        0.1515
     12 N         138.9025  141.8854  160.3526 N.pl3   1  UNL1       -0.2134
     13 H         138.2254  142.0691  159.6620 H       1  UNL1        0.2928
     14 C         138.0775  139.2732  166.2243 C.3     1  UNL1        0.0327
     15 C         138.3403  139.5980  164.7837 C.2     1  UNL1       -0.0015
     16 C         138.7650  138.6252  163.7238 C.2     1  UNL1        0.0944
     17 N         138.9117  139.3786  162.4351 N.2     1  UNL1       -0.2442
     18 C         138.5777  140.8170  162.6985 C.2     1  UNL1        0.1052
     19 C         138.5494  142.0209  161.8041 C.3     1  UNL1        0.2198
     20 C         138.1681  143.3604  162.3613 C.2     1  UNL1        0.0258
     21 C         137.8149  143.4960  163.8128 C.2     1  UNL1       -0.0002
     22 C         137.8432  142.2921  164.7072 C.2     1  UNL1        0.0009
     23 C         138.2245  140.9526  164.1500 C.2     1  UNL1        0.0153
     24 N         144.0445  142.6147  160.5232 N.pl3   1  UNL1       -0.2243
     25 H         144.7004  142.9648  159.8779 H       1  UNL1        0.2918
     26 C         144.2310  142.8613  161.9909 C.3     1  UNL1        0.1704
     27 C         145.0908  141.9387  162.8031 C.3     1  UNL1        0.0478
     28 C         145.2773  142.1854  164.2709 C.3     1  UNL1        0.0042
     29 C         144.6041  143.3546  164.9265 C.3     1  UNL1        0.0016
     30 C         143.7444  144.2772  164.1143 C.3     1  UNL1        0.0196
     31 C         143.5579  144.0305  162.6464 C.3     1  UNL1        0.0939
     32 N         142.6981  144.9531  161.8342 N.3     1  UNL1       -0.3190
     33 H         142.3231  145.6863  162.4361 H       1  UNL1        0.1189
     34 H         141.9289  144.4256  161.4213 H       1  UNL1        0.1189
@<TRIPOS>BOND
     1    14    15    1
     2    15    16    2
     3    16    17    1
     4    17    18    2
     5    18    19    1
     6    19    12    1
     7    12     1    1
     8     1     2    1
     9     2     3    2
    10     3    24    1
    11    26    24    1
    12    26    27    1
    13    27    28    1
    14    28    29    1
    15    29    30    1
    16    30    31    1
    17    31    32    1
    18     3     4    1
    19     4     5    1
    20     5     6    2
    21     6     7    1
    22     7     8    2
    23     8     9    1
    24     9    10    2
    25     9    11    1
    26    19    20    1
    27    20    21    2
    28    21    22    1
    29    22    23    2
    30    23    15    1
    31    23    18    1
    32    11     1    2
    33    31    26    1
    34    11     5    1
    35    12    13    1
    36    24    25    1
    37    32    33    1
    38    32    34    1
@<TRIPOS>MOLECULE
*****
 34 38 0 0 0
SMALL
GASTEIGER

@<TRIPOS>ATOM
      1 C         141.6776  140.9439  159.6993 C.2     1  UNL1        0.3308
      2 N         140.7369  141.9627  160.2712 N.2     1  UNL1       -0.0045
      3 C         139.2712  141.8873  159.9615 C.2     1  UNL1        0.3072
      4 C         138.7462  140.7933  159.0799 C.3     1  UNL1        0.1631
      5 C         139.6869  139.7745  158.5079 C.2     1  UNL1        0.0844
      6 N         139.1619  138.6804  157.6262 N.2     1  UNL1       -0.2296
      7 C         140.1026  137.6617  157.0543 C.2     1  UNL1        0.1880
      8 N         141.5684  137.7370  157.3640 N.am    1  UNL1       -0.1535
      9 C         142.0934  138.8311  158.2457 C.2     1  UNL1        0.2788
     10 O         143.5591  138.9064  158.5554 O.2     1  UNL1       -0.2677
     11 C         141.1527  139.8498  158.8176 C.2     1  UNL1        0.1515
     12 N         143.1434  141.0193  160.0090 N.pl3   1  UNL1       -0.2134
     13 H         143.7956  141.1283  159.2797 H       1  UNL1        0.2928
     14 C         144.6935  143.8471  165.6288 C.3     1  UNL1        0.0327
     15 C         144.2772  143.4728  164.2371 C.2     1  UNL1       -0.0015
     16 C         143.8333  144.4224  163.1642 C.2     1  UNL1        0.0944
     17 N         143.5136  143.6197  161.9380 N.2     1  UNL1       -0.2442
     18 C         143.7599  142.1740  162.2532 C.2     1  UNL1        0.1052
     19 C         143.6154  140.9285  161.4299 C.3     1  UNL1        0.2198
     20 C         143.9428  139.5922  162.0275 C.2     1  UNL1        0.0258
     21 C         144.4148  139.5014  163.4484 C.2     1  UNL1       -0.0002
     22 C         144.5593  140.7469  164.2717 C.2     1  UNL1        0.0009
     23 C         144.2319  142.0832  163.6741 C.2     1  UNL1        0.0153
     24 N         138.3304  142.9062  160.5335 N.pl3   1  UNL1       -0.2243
     25 H         137.6636  143.3406  159.9539 H       1  UNL1        0.2918
     26 C         138.4056  143.2630  161.9884 C.3     1  UNL1        0.1704
     27 C         139.1703  144.4776  162.4242 C.3     1  UNL1        0.0478
     28 C         139.2456  144.8345  163.8792 C.3     1  UNL1        0.0042
     29 C         138.5560  143.9767  164.8985 C.3     1  UNL1        0.0016
     30 C         137.7913  142.7621  164.4627 C.3     1  UNL1        0.0196
     31 C         137.7161  142.4053  163.0076 C.3     1  UNL1        0.0939
     32 N         136.9514  141.1906  162.5718 N.3     1  UNL1       -0.3190
     33 H         136.5507  140.7299  163.3889 H       1  UNL1        0.1189
     34 H         137.5806  140.5465  162.0928 H       1  UNL1        0.1189
@<TRIPOS>BOND
     1    14    15    1
     2    15    16    2
     3    16    17    1
     4    17    18    2
     5    18    19    1
     6    19    12    1
     7    12     1    1
     8     1     2    1
     9     2     3    2
    10     3    24    1
    11    26    24    1
    12    26    27    1
    13    27    28    1
    14    28    29    1
    15    29    30    1
    16    30    31    1
    17    31    32    1
    18     3     4    1
    19     4     5    1
    20     5     6    2
    21     6     7    1
    22     7     8    2
    23     8     9    1
    24     9    10    2
    25     9    11    1
    26    19    20    1
    27    20    21    2
    28    21    22    1
    29    22    23    2
    30    23    15    1
    31    23    18    1
    32    11     1    2
    33    31    26    1
    34    11     5    1
    35    12    13    1
    36    24    25    1
    37    32    33    1
    38    32    34    1
@<TRIPOS>MOLECULE
*****
 34 38 0 0 0
SMALL
GASTEIGER

@<TRIPOS>ATOM
      1 C         141.2491  140.2469  160.0792 C.2     1  UNL1        0.3308
      2 N         140.1635  141.1634  160.5604 N.2     1  UNL1       -0.0045
      3 C         140.1754  142.6111  160.1678 C.2     1  UNL1        0.3072
      4 C         141.2729  143.1422  159.2940 C.3     1  UNL1        0.1631
      5 C         142.3585  142.2257  158.8128 C.2     1  UNL1        0.0844
      6 N         143.4559  142.7568  157.9391 N.2     1  UNL1       -0.2296
      7 C         144.5415  141.8403  157.4579 C.2     1  UNL1        0.1880
      8 N         144.5296  140.3926  157.8505 N.am    1  UNL1       -0.1535
      9 C         143.4321  139.8615  158.7243 C.2     1  UNL1        0.2788
     10 O         143.4202  138.4138  159.1169 O.2     1  UNL1       -0.2677
     11 C         142.3466  140.7780  159.2054 C.2     1  UNL1        0.1515
     12 N         141.2372  138.7992  160.4719 N.pl3   1  UNL1       -0.2134
     13 H         141.3381  138.1019  159.7843 H       1  UNL1        0.2928
     14 C         143.5707  138.3774  166.5016 C.3     1  UNL1        0.0327
     15 C         143.2985  138.5945  165.0426 C.2     1  UNL1       -0.0015
     16 C         144.2498  139.1899  164.0473 C.2     1  UNL1        0.0944
     17 N         143.5665  139.2178  162.7123 N.2     1  UNL1       -0.2442
     18 C         142.1930  138.6396  162.8824 C.2     1  UNL1        0.1052
     19 C         141.0716  138.4141  161.9120 C.3     1  UNL1        0.2198
     20 C         139.7846  137.8034  162.3819 C.2     1  UNL1        0.0258
     21 C         139.6190  137.4182  163.8221 C.2     1  UNL1       -0.0002
     22 C         140.7403  137.6437  164.7925 C.2     1  UNL1        0.0009
     23 C         142.0273  138.2544  164.3227 C.2     1  UNL1        0.0153
     24 N         139.0898  143.5276  160.6489 N.pl3   1  UNL1       -0.2243
     25 H         138.5308  144.0122  159.9994 H       1  UNL1        0.2918
     26 C         138.8560  143.7059  162.1198 C.3     1  UNL1        0.1704
     27 C         139.5009  144.8472  162.8489 C.3     1  UNL1        0.0478
     28 C         139.2670  145.0254  164.3197 C.3     1  UNL1        0.0042
     29 C         138.3882  144.0624  165.0616 C.3     1  UNL1        0.0016
     30 C         137.7433  142.9211  164.3325 C.3     1  UNL1        0.0196
     31 C         137.9772  142.7429  162.8616 C.3     1  UNL1        0.0939
     32 N         137.3323  141.6016  162.1325 N.3     1  UNL1       -0.3190
     33 H         136.7743  141.0524  162.7863 H       1  UNL1        0.1189
     34 H         138.0540  141.0098  161.7210 H       1  UNL1        0.1189
@<TRIPOS>BOND
     1    14    15    1
     2    15    16    2
     3    16    17    1
     4    17    18    2
     5    18    19    1
     6    19    12    1
     7    12     1    1
     8     1     2    1
     9     2     3    2
    10     3    24    1
    11    26    24    1
    12    26    27    1
    13    27    28    1
    14    28    29    1
    15    29    30    1
    16    30    31    1
    17    31    32    1
    18     3     4    1
    19     4     5    1
    20     5     6    2
    21     6     7    1
    22     7     8    2
    23     8     9    1
    24     9    10    2
    25     9    11    1
    26    19    20    1
    27    20    21    2
    28    21    22    1
    29    22    23    2
    30    23    15    1
    31    23    18    1
    32    11     1    2
    33    31    26    1
    34    11     5    1
    35    12    13    1
    36    24    25    1
    37    32    33    1
    38    32    34    1
@<TRIPOS>MOLECULE
*****
 34 38 0 0 0
SMALL
GASTEIGER

@<TRIPOS>ATOM
      1 C         141.6294  141.3552  167.0141 C.2     1  UNL1        0.3308
      2 N         140.7097  140.6670  166.0494 N.2     1  UNL1       -0.0045
      3 C         139.5254  139.9005  166.5592 C.2     1  UNL1        0.3072
      4 C         139.2607  139.8223  168.0335 C.3     1  UNL1        0.1631
      5 C         140.1804  140.5105  168.9982 C.2     1  UNL1        0.0844
      6 N         139.9157  140.4323  170.4726 N.2     1  UNL1       -0.2296
      7 C         140.8354  141.1205  171.4372 C.2     1  UNL1        0.1880
      8 N         142.0197  141.8870  170.9275 N.am    1  UNL1       -0.1535
      9 C         142.2844  141.9652  169.4531 C.2     1  UNL1        0.2788
     10 O         143.4688  142.7317  168.9434 O.2     1  UNL1       -0.2677
     11 C         141.3648  141.2770  168.4885 C.2     1  UNL1        0.1515
     12 N         142.8138  142.1217  166.5043 N.pl3   1  UNL1       -0.2134
     13 H         143.6323  142.1818  167.0480 H       1  UNL1        0.2928
     14 C         139.6679  145.7644  162.1667 C.3     1  UNL1        0.0327
     15 C         140.1505  144.9620  163.3385 C.2     1  UNL1       -0.0015
     16 C         139.3968  144.7215  164.6129 C.2     1  UNL1        0.0944
     17 N         140.2520  143.8700  165.5036 N.2     1  UNL1       -0.2442
     18 C         141.5343  143.5842  164.7798 C.2     1  UNL1        0.1052
     19 C         142.7510  142.7966  165.1662 C.3     1  UNL1        0.2198
     20 C         143.9049  142.6838  164.2144 C.2     1  UNL1        0.0258
     21 C         143.8422  143.3587  162.8763 C.2     1  UNL1       -0.0002
     22 C         142.6255  144.1463  162.4899 C.2     1  UNL1        0.0009
     23 C         141.4716  144.2591  163.4416 C.2     1  UNL1        0.0153
     24 N         138.6057  139.2123  165.5945 N.pl3   1  UNL1       -0.2243
     25 H         138.1864  138.3560  165.8398 H       1  UNL1        0.2918
     26 C         138.3250  139.8287  164.2562 C.3     1  UNL1        0.1704
     27 C         137.9455  141.2769  164.1622 C.3     1  UNL1        0.0478
     28 C         137.6647  141.8933  162.8239 C.3     1  UNL1        0.0042
     29 C         137.7635  141.0616  161.5794 C.3     1  UNL1        0.0016
     30 C         138.1430  139.6134  161.6734 C.3     1  UNL1        0.0196
     31 C         138.4237  138.9970  163.0118 C.3     1  UNL1        0.0939
     32 N         138.8032  137.5488  163.1058 N.3     1  UNL1       -0.3190
     33 H         138.8219  137.1409  162.1711 H       1  UNL1        0.1189
     34 H         138.1193  137.0546  163.6789 H       1  UNL1        0.1189
@<TRIPOS>BOND
     1    14    15    1
     2    15    16    2
     3    16    17    1
     4    17    18    2
     5    18    19    1
     6    19    12    1
     7    12     1    1
     8     1     2    1
     9     2     3    2
    10     3    24    1
    11    26    24    1
    12    26    27    1
    13    27    28    1
    14    28    29    1
    15    29    30    1
    16    30    31    1
    17    31    32    1
    18     3     4    1
    19     4     5    1
    20     5     6    2
    21     6     7    1
    22     7     8    2
    23     8     9    1
    24     9    10    2
    25     9    11    1
    26    19    20    1
    27    20    21    2
    28    21    22    1
    29    22    23    2
    30    23    15    1
    31    23    18    1
    32    11     1    2
    33    31    26    1
    34    11     5    1
    35    12    13    1
    36    24    25    1
    37    32    33    1
    38    32    34    1
