@<TRIPOS>MOLECULE
*****
 27 29 0 0 0
SMALL
GASTEIGER

@<TRIPOS>ATOM
      1 O         141.3819  140.5220  163.5529 O.2     1  UNL1       -0.2698
      2 C         140.5456  139.3427  163.9529 C.2     1  UNL1        0.2495
      3 N         140.4187  138.1661  163.0311 N.am    1  UNL1       -0.2804
      4 H         139.8699  137.3921  163.2936 H       1  UNL1        0.1552
      5 C         141.1281  138.1689  161.7094 C.ar    1  UNL1        0.0507
      6 C         142.5773  137.7891  161.6352 C.ar    1  UNL1        0.0178
      7 C         143.2865  137.7918  160.3135 C.ar    1  UNL1        0.0385
      8 C         142.5466  138.1744  159.0661 C.ar    1  UNL1        0.1469
      9 C         141.0974  138.5542  159.1403 C.ar    1  UNL1        0.0385
     10 C         140.3882  138.5514  160.4619 C.ar    1  UNL1        0.0178
     11 O         143.2560  138.1771  157.7443 O.3     1  UNL1       -0.4045
     12 C         142.7753  137.2914  156.6333 C.3     1  UNL1        0.5753
     13 F         142.2945  136.4057  155.5222 F       1  UNL1       -0.1328
     14 F         142.5606  138.4961  155.7659 F       1  UNL1       -0.1328
     15 F         142.9900  136.0867  157.5008 F       1  UNL1       -0.1328
     16 C         139.8363  139.3400  165.2746 C.ar    1  UNL1        0.0537
     17 C         138.5179  138.6388  165.4168 C.ar    1  UNL1        0.0045
     18 C         137.8086  138.6361  166.7384 C.ar    1  UNL1        0.0001
     19 C         138.4177  139.3345  167.9179 C.ar    1  UNL1        0.0001
     20 C         139.7361  140.0357  167.7757 C.ar    1  UNL1        0.0031
     21 C         140.4453  140.0384  166.4541 C.ar    1  UNL1        0.0046
     22 C         140.3451  140.7342  168.9552 C.ar    1  UNL1        0.0384
     23 C         141.2579  141.9056  168.7440 C.ar    1  UNL1        0.1022
     24 N         141.8669  142.6040  169.9235 N.ar    1  UNL1       -0.2224
     25 C         141.5633  142.1311  171.3142 C.ar    1  UNL1        0.1989
     26 N         140.6505  140.9597  171.5254 N.ar    1  UNL1       -0.2224
     27 C         140.0415  140.2612  170.3459 C.ar    1  UNL1        0.1022
@<TRIPOS>BOND
     1     1     2    2
     2     2     3   am
     3     3     5    1
     4     5     6   ar
     5     6     7   ar
     6     7     8   ar
     7     8    11    1
     8    11    12    1
     9    12    13    1
    10    12    14    1
    11    12    15    1
    12     8     9   ar
    13     9    10   ar
    14     2    16    1
    15    16    17   ar
    16    17    18   ar
    17    18    19   ar
    18    19    20   ar
    19    20    22    1
    20    22    23   ar
    21    23    24   ar
    22    24    25   ar
    23    25    26   ar
    24    26    27   ar
    25    20    21   ar
    26    10     5   ar
    27    21    16   ar
    28    27    22   ar
    29     3     4    1
@<TRIPOS>MOLECULE
*****
 27 29 0 0 0
SMALL
GASTEIGER

@<TRIPOS>ATOM
      1 O         140.6600  136.8800  163.1568 O.2     1  UNL1       -0.2698
      2 C         140.3760  138.3267  163.4333 C.2     1  UNL1        0.2495
      3 N         140.4893  139.3373  162.3307 N.am    1  UNL1       -0.2804
      4 H         140.3029  140.2868  162.5121 H       1  UNL1        0.1552
      5 C         140.8865  138.9012  160.9515 C.ar    1  UNL1        0.0507
      6 C         139.8590  138.8346  159.8608 C.ar    1  UNL1        0.0178
      7 C         140.2563  138.3986  158.4817 C.ar    1  UNL1        0.0385
      8 C         141.6811  138.0291  158.1933 C.ar    1  UNL1        0.1469
      9 C         142.7087  138.0957  159.2839 C.ar    1  UNL1        0.0385
     10 C         142.3114  138.5318  160.6630 C.ar    1  UNL1        0.0178
     11 O         142.0784  137.5930  156.8141 O.3     1  UNL1       -0.4045
     12 C         141.9656  136.1495  156.4223 C.3     1  UNL1        0.5753
     13 F         141.8528  134.7059  156.0305 F       1  UNL1       -0.1328
     14 F         143.3872  135.9239  156.8442 F       1  UNL1       -0.1328
     15 F         140.5440  136.3752  156.0004 F       1  UNL1       -0.1328
     16 C         139.9787  138.7628  164.8125 C.ar    1  UNL1        0.0537
     17 C         138.5726  138.5514  165.2900 C.ar    1  UNL1        0.0045
     18 C         138.1754  138.9874  166.6691 C.ar    1  UNL1        0.0001
     19 C         139.1843  139.6350  167.5707 C.ar    1  UNL1        0.0001
     20 C         140.5904  139.8464  167.0932 C.ar    1  UNL1        0.0031
     21 C         140.9876  139.4104  165.7140 C.ar    1  UNL1        0.0046
     22 C         141.5993  140.4940  167.9947 C.ar    1  UNL1        0.0384
     23 C         141.9887  141.9262  167.7781 C.ar    1  UNL1        0.1022
     24 N         142.9976  142.5737  168.6797 N.ar    1  UNL1       -0.2224
     25 C         143.6171  141.7890  169.7979 C.ar    1  UNL1        0.1989
     26 N         143.2277  140.3568  170.0145 N.ar    1  UNL1       -0.2224
     27 C         142.2188  139.7093  169.1129 C.ar    1  UNL1        0.1022
@<TRIPOS>BOND
     1     1     2    2
     2     2     3   am
     3     3     5    1
     4     5     6   ar
     5     6     7   ar
     6     7     8   ar
     7     8    11    1
     8    11    12    1
     9    12    13    1
    10    12    14    1
    11    12    15    1
    12     8     9   ar
    13     9    10   ar
    14     2    16    1
    15    16    17   ar
    16    17    18   ar
    17    18    19   ar
    18    19    20   ar
    19    20    22    1
    20    22    23   ar
    21    23    24   ar
    22    24    25   ar
    23    25    26   ar
    24    26    27   ar
    25    20    21   ar
    26    10     5   ar
    27    21    16   ar
    28    27    22   ar
    29     3     4    1
@<TRIPOS>MOLECULE
*****
 27 29 0 0 0
SMALL
GASTEIGER

@<TRIPOS>ATOM
      1 O         137.6631  142.1055  162.8982 O.2     1  UNL1       -0.2698
      2 C         138.9074  141.9501  163.7213 C.2     1  UNL1        0.2495
      3 N         140.1662  142.6598  163.3192 N.am    1  UNL1       -0.2804
      4 H         140.9828  142.5577  163.8595 H       1  UNL1        0.1552
      5 C         140.1807  143.5249  162.0939 C.ar    1  UNL1        0.0507
      6 C         139.9601  145.0034  162.2170 C.ar    1  UNL1        0.0178
      7 C         139.9746  145.8685  160.9917 C.ar    1  UNL1        0.0385
      8 C         140.2098  145.2550  159.6433 C.ar    1  UNL1        0.1469
      9 C         140.4305  143.7765  159.5201 C.ar    1  UNL1        0.0385
     10 C         140.4159  142.9115  160.7454 C.ar    1  UNL1        0.0178
     11 O         140.2244  146.1202  158.4179 O.3     1  UNL1       -0.4045
     12 C         141.0306  145.7116  157.2209 C.3     1  UNL1        0.5753
     13 F         141.8370  145.3031  156.0238 F       1  UNL1       -0.1328
     14 F         142.2781  146.2029  157.8935 F       1  UNL1       -0.1328
     15 F         139.7832  145.2204  156.5483 F       1  UNL1       -0.1328
     16 C         138.8928  141.0849  164.9467 C.ar    1  UNL1        0.0537
     17 C         138.1448  139.7848  164.9380 C.ar    1  UNL1        0.0045
     18 C         138.1303  138.9198  166.1633 C.ar    1  UNL1        0.0001
     19 C         138.8638  139.3548  167.3973 C.ar    1  UNL1        0.0001
     20 C         139.6119  140.6549  167.4059 C.ar    1  UNL1        0.0031
     21 C         139.6264  141.5199  166.1806 C.ar    1  UNL1        0.0046
     22 C         140.3455  141.0899  168.6399 C.ar    1  UNL1        0.0384
     23 C         139.7156  140.9104  169.9893 C.ar    1  UNL1        0.1022
     24 N         140.4491  141.3454  171.2233 N.ar    1  UNL1       -0.2224
     25 C         141.8126  141.9599  171.1078 C.ar    1  UNL1        0.1989
     26 N         142.4425  142.1394  169.7584 N.ar    1  UNL1       -0.2224
     27 C         141.7089  141.7044  168.5244 C.ar    1  UNL1        0.1022
@<TRIPOS>BOND
     1     1     2    2
     2     2     3   am
     3     3     5    1
     4     5     6   ar
     5     6     7   ar
     6     7     8   ar
     7     8    11    1
     8    11    12    1
     9    12    13    1
    10    12    14    1
    11    12    15    1
    12     8     9   ar
    13     9    10   ar
    14     2    16    1
    15    16    17   ar
    16    17    18   ar
    17    18    19   ar
    18    19    20   ar
    19    20    22    1
    20    22    23   ar
    21    23    24   ar
    22    24    25   ar
    23    25    26   ar
    24    26    27   ar
    25    20    21   ar
    26    10     5   ar
    27    21    16   ar
    28    27    22   ar
    29     3     4    1
@<TRIPOS>MOLECULE
*****
 27 29 0 0 0
SMALL
GASTEIGER

@<TRIPOS>ATOM
      1 O         139.9904  140.9433  162.9383 O.2     1  UNL1       -0.2698
      2 C         140.4184  139.8255  163.8424 C.2     1  UNL1        0.2495
      3 N         141.4852  138.8689  163.3989 N.am    1  UNL1       -0.2804
      4 H         141.7661  138.1353  163.9923 H       1  UNL1        0.1552
      5 C         142.1241  139.0301  162.0513 C.ar    1  UNL1        0.0507
      6 C         143.2058  140.0498  161.8513 C.ar    1  UNL1        0.0178
      7 C         143.8446  140.2109  160.5037 C.ar    1  UNL1        0.0385
      8 C         143.4018  139.3522  159.3563 C.ar    1  UNL1        0.1469
      9 C         142.3202  138.3325  159.5564 C.ar    1  UNL1        0.0385
     10 C         141.6813  138.1714  160.9039 C.ar    1  UNL1        0.0178
     11 O         144.0407  139.5134  158.0087 O.3     1  UNL1       -0.4045
     12 C         144.0702  140.8601  157.3489 C.3     1  UNL1        0.5753
     13 F         144.0997  142.2069  156.6890 F       1  UNL1       -0.1328
     14 F         145.5580  140.7509  157.1924 F       1  UNL1       -0.1328
     15 F         142.5824  140.9693  157.5053 F       1  UNL1       -0.1328
     16 C         139.7795  139.6644  165.1899 C.ar    1  UNL1        0.0537
     17 C         138.5225  138.8584  165.3325 C.ar    1  UNL1        0.0045
     18 C         137.8836  138.6973  166.6800 C.ar    1  UNL1        0.0001
     19 C         138.5018  139.3422  167.8850 C.ar    1  UNL1        0.0001
     20 C         139.7588  140.1481  167.7425 C.ar    1  UNL1        0.0031
     21 C         140.3976  140.3092  166.3950 C.ar    1  UNL1        0.0046
     22 C         140.3769  140.7930  168.9475 C.ar    1  UNL1        0.0384
     23 C         140.0693  140.2695  170.3191 C.ar    1  UNL1        0.1022
     24 N         140.6874  140.9143  171.5241 N.ar    1  UNL1       -0.2224
     25 C         141.6132  142.0827  171.3575 C.ar    1  UNL1        0.1989
     26 N         141.9208  142.6062  169.9860 N.ar    1  UNL1       -0.2224
     27 C         141.3027  141.9614  168.7810 C.ar    1  UNL1        0.1022
@<TRIPOS>BOND
     1     1     2    2
     2     2     3   am
     3     3     5    1
     4     5     6   ar
     5     6     7   ar
     6     7     8   ar
     7     8    11    1
     8    11    12    1
     9    12    13    1
    10    12    14    1
    11    12    15    1
    12     8     9   ar
    13     9    10   ar
    14     2    16    1
    15    16    17   ar
    16    17    18   ar
    17    18    19   ar
    18    19    20   ar
    19    20    22    1
    20    22    23   ar
    21    23    24   ar
    22    24    25   ar
    23    25    26   ar
    24    26    27   ar
    25    20    21   ar
    26    10     5   ar
    27    21    16   ar
    28    27    22   ar
    29     3     4    1
@<TRIPOS>MOLECULE
*****
 27 29 0 0 0
SMALL
GASTEIGER

@<TRIPOS>ATOM
      1 O         138.9293  140.4959  165.2511 O.2     1  UNL1       -0.2698
      2 C         139.9002  140.2471  164.1350 C.2     1  UNL1        0.2495
      3 N         141.3748  140.2469  164.4098 N.am    1  UNL1       -0.2804
      4 H         142.0119  140.0836  163.6772 H       1  UNL1        0.1552
      5 C         141.8786  140.4955  165.8006 C.ar    1  UNL1        0.0507
      6 C         142.1062  139.3428  166.7331 C.ar    1  UNL1        0.0178
      7 C         142.6100  139.5914  168.1238 C.ar    1  UNL1        0.0385
      8 C         142.8862  140.9927  168.5822 C.ar    1  UNL1        0.1469
      9 C         142.6586  142.1454  167.6498 C.ar    1  UNL1        0.0385
     10 C         142.1548  141.8968  166.2590 C.ar    1  UNL1        0.0178
     11 O         143.3900  141.2413  169.9731 O.3     1  UNL1       -0.4045
     12 C         143.4908  142.6440  170.4948 C.3     1  UNL1        0.5753
     13 F         143.5915  144.0468  171.0165 F       1  UNL1       -0.1328
     14 F         144.9254  142.7024  170.0607 F       1  UNL1       -0.1328
     15 F         142.0561  142.5856  170.9288 F       1  UNL1       -0.1328
     16 C         139.3963  139.9986  162.7441 C.ar    1  UNL1        0.0537
     17 C         137.9720  140.3136  162.3949 C.ar    1  UNL1        0.0045
     18 C         137.4683  140.0651  161.0041 C.ar    1  UNL1        0.0001
     19 C         138.3888  139.5014  159.9625 C.ar    1  UNL1        0.0001
     20 C         139.8131  139.1863  160.3118 C.ar    1  UNL1        0.0031
     21 C         140.3169  139.4349  161.7026 C.ar    1  UNL1        0.0046
     22 C         140.7337  138.6227  159.2702 C.ar    1  UNL1        0.0384
     23 C         142.1784  138.3845  159.5958 C.ar    1  UNL1        0.1022
     24 N         143.0989  137.8208  158.5543 N.ar    1  UNL1       -0.2224
     25 C         142.5748  137.4953  157.1871 C.ar    1  UNL1        0.1989
     26 N         141.1301  137.7335  156.8614 N.ar    1  UNL1       -0.2224
     27 C         140.2095  138.2972  157.9030 C.ar    1  UNL1        0.1022
@<TRIPOS>BOND
     1     1     2    2
     2     2     3   am
     3     3     5    1
     4     5     6   ar
     5     6     7   ar
     6     7     8   ar
     7     8    11    1
     8    11    12    1
     9    12    13    1
    10    12    14    1
    11    12    15    1
    12     8     9   ar
    13     9    10   ar
    14     2    16    1
    15    16    17   ar
    16    17    18   ar
    17    18    19   ar
    18    19    20   ar
    19    20    22    1
    20    22    23   ar
    21    23    24   ar
    22    24    25   ar
    23    25    26   ar
    24    26    27   ar
    25    20    21   ar
    26    10     5   ar
    27    21    16   ar
    28    27    22   ar
    29     3     4    1
@<TRIPOS>MOLECULE
*****
 27 29 0 0 0
SMALL
GASTEIGER

@<TRIPOS>ATOM
      1 O         137.5481  142.2169  164.0450 O.2     1  UNL1       -0.2698
      2 C         138.5789  141.4409  163.2800 C.2     1  UNL1        0.2495
      3 N         139.5944  140.6163  164.0140 N.am    1  UNL1       -0.2804
      4 H         140.2709  140.1070  163.5119 H       1  UNL1        0.1552
      5 C         139.5791  140.5677  165.5132 C.ar    1  UNL1        0.0507
      6 C         140.3665  141.5699  166.3042 C.ar    1  UNL1        0.0178
      7 C         140.3512  141.5213  167.8033 C.ar    1  UNL1        0.0385
      8 C         139.5485  140.4705  168.5114 C.ar    1  UNL1        0.1469
      9 C         138.7611  139.4683  167.7205 C.ar    1  UNL1        0.0385
     10 C         138.7764  139.5169  166.2214 C.ar    1  UNL1        0.0178
     11 O         139.5332  140.4219  170.0106 O.3     1  UNL1       -0.4045
     12 C         140.8133  140.5666  170.7788 C.3     1  UNL1        0.5753
     13 F         142.0936  140.7114  171.5470 F       1  UNL1       -0.1328
     14 F         140.4032  141.9458  171.2025 F       1  UNL1       -0.1328
     15 F         141.2235  139.1874  170.3551 F       1  UNL1       -0.1328
     16 C         138.5942  141.4895  161.7808 C.ar    1  UNL1        0.0537
     17 C         137.8721  140.4400  160.9890 C.ar    1  UNL1        0.0045
     18 C         137.8874  140.4887  159.4899 C.ar    1  UNL1        0.0001
     19 C         138.6249  141.5868  158.7826 C.ar    1  UNL1        0.0001
     20 C         139.3470  142.6363  159.5744 C.ar    1  UNL1        0.0031
     21 C         139.3317  142.5876  161.0735 C.ar    1  UNL1        0.0046
     22 C         140.0845  143.7344  158.8671 C.ar    1  UNL1        0.0384
     23 C         141.1744  144.4830  159.5753 C.ar    1  UNL1        0.1022
     24 N         141.9119  145.5811  158.8680 N.ar    1  UNL1       -0.2224
     25 C         141.5595  145.9307  157.4526 C.ar    1  UNL1        0.1989
     26 N         140.4695  145.1820  156.7444 N.ar    1  UNL1       -0.2224
     27 C         139.7320  144.0839  157.4517 C.ar    1  UNL1        0.1022
@<TRIPOS>BOND
     1     1     2    2
     2     2     3   am
     3     3     5    1
     4     5     6   ar
     5     6     7   ar
     6     7     8   ar
     7     8    11    1
     8    11    12    1
     9    12    13    1
    10    12    14    1
    11    12    15    1
    12     8     9   ar
    13     9    10   ar
    14     2    16    1
    15    16    17   ar
    16    17    18   ar
    17    18    19   ar
    18    19    20   ar
    19    20    22    1
    20    22    23   ar
    21    23    24   ar
    22    24    25   ar
    23    25    26   ar
    24    26    27   ar
    25    20    21   ar
    26    10     5   ar
    27    21    16   ar
    28    27    22   ar
    29     3     4    1
@<TRIPOS>MOLECULE
*****
 27 29 0 0 0
SMALL
GASTEIGER

@<TRIPOS>ATOM
      1 O         140.1467  138.1936  163.0646 O.2     1  UNL1       -0.2698
      2 C         139.3516  139.3410  162.5156 C.2     1  UNL1        0.2495
      3 N         138.6997  140.3167  163.4499 N.am    1  UNL1       -0.2804
      4 H         138.1778  141.0697  163.0896 H       1  UNL1        0.1552
      5 C         138.8428  140.1450  164.9332 C.ar    1  UNL1        0.0507
      6 C         139.8233  140.9869  165.6946 C.ar    1  UNL1        0.0178
      7 C         139.9663  140.8152  167.1778 C.ar    1  UNL1        0.0385
      8 C         139.1288  139.8015  167.8997 C.ar    1  UNL1        0.1469
      9 C         138.1483  138.9596  167.1384 C.ar    1  UNL1        0.0385
     10 C         138.0052  139.1314  165.6551 C.ar    1  UNL1        0.0178
     11 O         139.2719  139.6299  169.3830 O.3     1  UNL1       -0.4045
     12 C         140.0527  140.6308  170.1820 C.3     1  UNL1        0.5753
     13 F         140.8336  141.6318  170.9810 F       1  UNL1       -0.1328
     14 F         138.8536  141.5308  170.2264 F       1  UNL1       -0.1328
     15 F         141.2519  139.7308  170.1376 F       1  UNL1       -0.1328
     16 C         139.2086  139.5127  161.0323 C.ar    1  UNL1        0.0537
     17 C         138.1417  140.4113  160.4808 C.ar    1  UNL1        0.0045
     18 C         137.9987  140.5829  158.9976 C.ar    1  UNL1        0.0001
     19 C         138.9225  139.8560  158.0659 C.ar    1  UNL1        0.0001
     20 C         139.9893  138.9573  158.6174 C.ar    1  UNL1        0.0031
     21 C         140.1324  138.7857  160.1006 C.ar    1  UNL1        0.0046
     22 C         140.9132  138.2304  157.6857 C.ar    1  UNL1        0.0384
     23 C         142.2807  137.8254  158.1502 C.ar    1  UNL1        0.1022
     24 N         143.2045  137.0984  157.2185 N.ar    1  UNL1       -0.2224
     25 C         142.7608  136.7764  155.8223 C.ar    1  UNL1        0.1989
     26 N         141.3933  137.1813  155.3578 N.ar    1  UNL1       -0.2224
     27 C         140.4694  137.9083  156.2895 C.ar    1  UNL1        0.1022
@<TRIPOS>BOND
     1     1     2    2
     2     2     3   am
     3     3     5    1
     4     5     6   ar
     5     6     7   ar
     6     7     8   ar
     7     8    11    1
     8    11    12    1
     9    12    13    1
    10    12    14    1
    11    12    15    1
    12     8     9   ar
    13     9    10   ar
    14     2    16    1
    15    16    17   ar
    16    17    18   ar
    17    18    19   ar
    18    19    20   ar
    19    20    22    1
    20    22    23   ar
    21    23    24   ar
    22    24    25   ar
    23    25    26   ar
    24    26    27   ar
    25    20    21   ar
    26    10     5   ar
    27    21    16   ar
    28    27    22   ar
    29     3     4    1
@<TRIPOS>MOLECULE
*****
 27 29 0 0 0
SMALL
GASTEIGER

@<TRIPOS>ATOM
      1 O         141.7080  141.2849  163.2008 O.2     1  UNL1       -0.2698
      2 C         142.8682  140.5549  163.8097 C.2     1  UNL1        0.2495
      3 N         144.0890  140.2676  162.9868 N.am    1  UNL1       -0.2804
      4 H         144.8505  139.7884  163.3865 H       1  UNL1        0.1552
      5 C         144.1494  140.7102  161.5549 C.ar    1  UNL1        0.0507
      6 C         144.5463  142.1177  161.2211 C.ar    1  UNL1        0.0178
      7 C         144.6067  142.5603  159.7892 C.ar    1  UNL1        0.0385
      8 C         144.2704  141.5955  158.6911 C.ar    1  UNL1        0.1469
      9 C         143.8736  140.1880  159.0248 C.ar    1  UNL1        0.0385
     10 C         143.8131  139.7454  160.4567 C.ar    1  UNL1        0.0178
     11 O         144.3309  142.0381  157.2591 O.3     1  UNL1       -0.4045
     12 C         145.3271  141.4190  156.3241 C.3     1  UNL1        0.5753
     13 F         146.3233  140.7999  155.3891 F       1  UNL1       -0.1328
     14 F         144.2072  140.8055  155.5371 F       1  UNL1       -0.1328
     15 F         146.4470  142.0326  157.1111 F       1  UNL1       -0.1328
     16 C         142.8078  140.1122  165.2417 C.ar    1  UNL1        0.0537
     17 C         143.4814  138.8398  165.6625 C.ar    1  UNL1        0.0045
     18 C         143.4209  138.3972  167.0944 C.ar    1  UNL1        0.0001
     19 C         142.6867  139.2270  168.1055 C.ar    1  UNL1        0.0001
     20 C         142.0131  140.4994  167.6848 C.ar    1  UNL1        0.0031
     21 C         142.0736  140.9420  166.2529 C.ar    1  UNL1        0.0046
     22 C         141.2789  141.3292  168.6959 C.ar    1  UNL1        0.0384
     23 C         140.0065  140.8183  169.3040 C.ar    1  UNL1        0.1022
     24 N         139.2724  141.6481  170.3151 N.ar    1  UNL1       -0.2224
     25 C         139.8106  142.9889  170.7182 C.ar    1  UNL1        0.1989
     26 N         141.0830  143.4998  170.1101 N.ar    1  UNL1       -0.2224
     27 C         141.8172  142.6700  169.0990 C.ar    1  UNL1        0.1022
@<TRIPOS>BOND
     1     1     2    2
     2     2     3   am
     3     3     5    1
     4     5     6   ar
     5     6     7   ar
     6     7     8   ar
     7     8    11    1
     8    11    12    1
     9    12    13    1
    10    12    14    1
    11    12    15    1
    12     8     9   ar
    13     9    10   ar
    14     2    16    1
    15    16    17   ar
    16    17    18   ar
    17    18    19   ar
    18    19    20   ar
    19    20    22    1
    20    22    23   ar
    21    23    24   ar
    22    24    25   ar
    23    25    26   ar
    24    26    27   ar
    25    20    21   ar
    26    10     5   ar
    27    21    16   ar
    28    27    22   ar
    29     3     4    1
@<TRIPOS>MOLECULE
*****
 27 29 0 0 0
SMALL
GASTEIGER

@<TRIPOS>ATOM
      1 O         143.7444  139.4678  157.9837 O.2     1  UNL1       -0.2698
      2 C         142.8134  138.3841  158.4407 C.2     1  UNL1        0.2495
      3 N         142.3276  138.3618  159.8597 N.am    1  UNL1       -0.2804
      4 H         141.7165  137.6506  160.1596 H       1  UNL1        0.1552
      5 C         142.7728  139.4232  160.8216 C.ar    1  UNL1        0.0507
      6 C         141.9355  140.6511  161.0239 C.ar    1  UNL1        0.0178
      7 C         142.3807  141.7124  161.9858 C.ar    1  UNL1        0.0385
      8 C         143.6633  141.5458  162.7455 C.ar    1  UNL1        0.1469
      9 C         144.5007  140.3178  162.5433 C.ar    1  UNL1        0.0385
     10 C         144.0554  139.2565  161.5814 C.ar    1  UNL1        0.0178
     11 O         144.1086  142.6071  163.7075 O.3     1  UNL1       -0.4045
     12 C         143.9799  144.0553  163.3387 C.3     1  UNL1        0.5753
     13 F         143.8511  145.5036  162.9700 F       1  UNL1       -0.1328
     14 F         143.1066  144.2828  164.5368 F       1  UNL1       -0.1328
     15 F         144.8532  143.8279  162.1406 F       1  UNL1       -0.1328
     16 C         142.3681  137.3228  157.4787 C.ar    1  UNL1        0.0537
     17 C         141.1908  137.5689  156.5826 C.ar    1  UNL1        0.0045
     18 C         140.7456  136.5076  155.6206 C.ar    1  UNL1        0.0001
     19 C         141.4778  135.2001  155.5549 C.ar    1  UNL1        0.0001
     20 C         142.6552  134.9539  156.4511 C.ar    1  UNL1        0.0031
     21 C         143.1003  136.0152  157.4130 C.ar    1  UNL1        0.0046
     22 C         143.3873  133.6464  156.3853 C.ar    1  UNL1        0.0384
     23 C         143.2772  132.7858  155.1617 C.ar    1  UNL1        0.1022
     24 N         144.0094  131.4783  155.0960 N.ar    1  UNL1       -0.2224
     25 C         144.8517  131.0314  156.2538 C.ar    1  UNL1        0.1989
     26 N         144.9619  131.8919  157.4774 N.ar    1  UNL1       -0.2224
     27 C         144.2297  133.1995  157.5432 C.ar    1  UNL1        0.1022
@<TRIPOS>BOND
     1     1     2    2
     2     2     3   am
     3     3     5    1
     4     5     6   ar
     5     6     7   ar
     6     7     8   ar
     7     8    11    1
     8    11    12    1
     9    12    13    1
    10    12    14    1
    11    12    15    1
    12     8     9   ar
    13     9    10   ar
    14     2    16    1
    15    16    17   ar
    16    17    18   ar
    17    18    19   ar
    18    19    20   ar
    19    20    22    1
    20    22    23   ar
    21    23    24   ar
    22    24    25   ar
    23    25    26   ar
    24    26    27   ar
    25    20    21   ar
    26    10     5   ar
    27    21    16   ar
    28    27    22   ar
    29     3     4    1
