@<TRIPOS>MOLECULE
*****
 40 45 0 0 0
SMALL
GASTEIGER

@<TRIPOS>ATOM
      1 C         140.8601  139.9029  159.9146 C.ar    1  UNL1        0.1669
      2 N         141.0263  139.6522  161.3842 N.ar    1  UNL1       -0.2221
      3 C         140.7711  140.9419  162.1062 C.ar    1  UNL1        0.1307
      4 C         140.7918  141.2976  163.5632 C.ar    1  UNL1        0.0777
      5 C         140.4885  142.7012  163.9970 C.ar    1  UNL1        0.0893
      6 CL        140.5092  143.0569  165.4541 Cl      1  UNL1       -0.0794
      7 C         140.1645  143.7489  162.9738 C.ar    1  UNL1        0.0863
      8 N         140.1438  143.3933  161.5167 N.ar    1  UNL1       -0.3354
      9 C         140.4470  141.9898  161.0829 C.ar    1  UNL1        0.1613
     10 N         140.5021  141.3476  159.7284 N.ar    1  UNL1       -0.2080
     11 H         139.9311  144.0810  160.8451 H       1  UNL1        0.1675
     12 C         142.3462  138.2101  158.6200 C.ar    1  UNL1        0.1428
     13 C         142.5093  137.1945  157.5283 C.ar    1  UNL1        0.0515
     14 C         141.3494  136.8559  156.6395 C.ar    1  UNL1        0.0510
     15 C         140.0264  137.5329  156.8424 C.ar    1  UNL1        0.0148
     16 C         139.8633  138.5486  157.9341 C.ar    1  UNL1        0.0074
     17 C         141.0232  138.8872  158.8229 C.ar    1  UNL1        0.0698
     18 N         141.5125  135.8402  155.5478 N.pl3   1  UNL1       -0.3046
     19 C         142.2812  134.5783  155.8062 C.3     1  UNL1        0.1081
     20 C         142.4443  133.5627  154.7145 C.3     1  UNL1        0.0938
     21 N         141.8388  133.8088  153.3645 N.3     1  UNL1       -0.2686
     22 C         142.0019  132.7932  152.2728 C.3     1  UNL1        0.0897
     23 C         141.0701  135.0707  153.1060 C.3     1  UNL1        0.0938
     24 C         140.9070  136.0864  154.1977 C.3     1  UNL1        0.1081
     25 C         143.7561  137.7491  160.7530 C.3     1  UNL1        0.2525
     26 O         143.5062  138.5487  159.5088 O.3     1  UNL1       -0.4713
     27 N         141.1158  140.2498  164.5866 N.pl3   1  UNL1       -0.3313
     28 H         142.0525  140.0795  164.8372 H       1  UNL1        0.1469
     29 C         140.0126  139.4615  165.2280 C.3     1  UNL1        0.0819
     30 C         139.3770  138.2215  164.6726 C.3     1  UNL1        0.0983
     31 C         138.3229  137.7683  165.6388 C.3     1  UNL1        0.0323
     32 C         137.6616  138.0815  166.9483 C.2     1  UNL1       -0.0304
     33 C         138.2972  139.3215  167.5036 C.2     1  UNL1       -0.0294
     34 C         139.3513  139.7747  166.5375 C.3     1  UNL1        0.0404
     35 C         139.3672  138.8148  165.3849 C.3     1  UNL1        0.0109
     36 C         139.7330  137.5522  163.3783 C.2     1  UNL1        0.2208
     37 N         138.8026  137.6446  162.2054 N.am    1  UNL1       -0.3288
     38 O         141.0195  136.7904  163.2569 O.2     1  UNL1       -0.2753
     39 H         137.9582  138.1445  162.2851 H       1  UNL1        0.1449
     40 H         139.0362  137.2053  161.3559 H       1  UNL1        0.1449
@<TRIPOS>BOND
     1    25    26    1
     2    26    12    1
     3    12    13   ar
     4    13    14   ar
     5    14    18    1
     6    18    19    1
     7    19    20    1
     8    20    21    1
     9    21    22    1
    10    21    23    1
    11    23    24    1
    12    14    15   ar
    13    15    16   ar
    14    16    17   ar
    15    17     1    1
    16     1     2   ar
    17     2     3   ar
    18     3     4   ar
    19     4    27    1
    20    29    27    1
    21    29    30    1
    22    30    36    1
    23    36    37   am
    24    36    38    2
    25    30    31    1
    26    31    32    1
    27    32    33    2
    28    34    33    1
    29    34    35    1
    30     4     5   ar
    31     5     6    1
    32     5     7   ar
    33     7     8   ar
    34     8     9   ar
    35     9    10   ar
    36    17    12   ar
    37    10     1   ar
    38    24    18    1
    39     9     3    1
    40    34    29    1
    41    35    31    1
    42    27    28    1
    43    37    39    1
    44    37    40    1
    45     8    11    1
@<TRIPOS>MOLECULE
*****
 40 45 0 0 0
SMALL
GASTEIGER

@<TRIPOS>ATOM
      1 C         141.1279  139.8227  159.7908 C.ar    1  UNL1        0.1669
      2 N         141.2684  139.5648  161.2617 N.ar    1  UNL1       -0.2221
      3 C         141.0732  140.8665  161.9812 C.ar    1  UNL1        0.1307
      4 C         141.0995  141.2216  163.4383 C.ar    1  UNL1        0.0777
      5 C         140.8647  142.6392  163.8691 C.ar    1  UNL1        0.0893
      6 CL        140.8910  142.9943  165.3262 Cl      1  UNL1       -0.0794
      7 C         140.6037  143.7014  162.8428 C.ar    1  UNL1        0.0863
      8 N         140.5774  143.3463  161.3857 N.ar    1  UNL1       -0.3354
      9 C         140.8122  141.9288  160.9549 C.ar    1  UNL1        0.1613
     10 N         140.8460  141.2837  159.6011 N.ar    1  UNL1       -0.2080
     11 H         140.4060  144.0435  160.7121 H       1  UNL1        0.1675
     12 C         140.0817  138.5230  157.7992 C.ar    1  UNL1        0.1428
     13 C         140.2022  137.4995  156.7092 C.ar    1  UNL1        0.0515
     14 C         141.4892  136.7524  156.5207 C.ar    1  UNL1        0.0510
     15 C         142.6557  137.0287  157.4222 C.ar    1  UNL1        0.0148
     16 C         142.5353  138.0522  158.5123 C.ar    1  UNL1        0.0074
     17 C         141.2483  138.7993  158.7008 C.ar    1  UNL1        0.0698
     18 N         141.6095  135.7290  155.4307 N.pl3   1  UNL1       -0.3046
     19 C         141.2315  136.0843  154.0234 C.3     1  UNL1        0.1081
     20 C         141.3518  135.0609  152.9334 C.3     1  UNL1        0.0938
     21 N         141.8502  133.6822  153.2507 N.3     1  UNL1       -0.2686
     22 C         141.9706  132.6588  152.1607 C.3     1  UNL1        0.0897
     23 C         142.2283  133.3268  154.6581 C.3     1  UNL1        0.0938
     24 C         142.1079  134.3503  155.7481 C.3     1  UNL1        0.1081
     25 C         138.4008  140.3424  157.0157 C.3     1  UNL1        0.2525
     26 O         138.7948  139.2700  157.9877 O.3     1  UNL1       -0.4713
     27 N         141.3606  140.1593  164.4647 N.pl3   1  UNL1       -0.3313
     28 H         142.2858  139.9248  164.7060 H       1  UNL1        0.1469
     29 C         140.2121  139.4543  165.1233 C.3     1  UNL1        0.0819
     30 C         139.4844  138.2592  164.5829 C.3     1  UNL1        0.0983
     31 C         138.4121  137.8869  165.5636 C.3     1  UNL1        0.0323
     32 C         137.7895  138.2534  166.8782 C.2     1  UNL1       -0.0304
     33 C         138.5172  139.4485  167.4185 C.2     1  UNL1       -0.0294
     34 C         139.5895  139.8208  166.4379 C.3     1  UNL1        0.0404
     35 C         139.5246  138.8557  165.2914 C.3     1  UNL1        0.0109
     36 C         139.7775  137.5591  163.2891 C.2     1  UNL1        0.2208
     37 N         138.8185  137.6718  162.1413 N.am    1  UNL1       -0.3288
     38 O         141.0297  136.7462  163.1431 O.2     1  UNL1       -0.2753
     39 H         137.9967  138.2053  162.2371 H       1  UNL1        0.1449
     40 H         139.0109  137.2123  161.2921 H       1  UNL1        0.1449
@<TRIPOS>BOND
     1    25    26    1
     2    26    12    1
     3    12    13   ar
     4    13    14   ar
     5    14    18    1
     6    18    19    1
     7    19    20    1
     8    20    21    1
     9    21    22    1
    10    21    23    1
    11    23    24    1
    12    14    15   ar
    13    15    16   ar
    14    16    17   ar
    15    17     1    1
    16     1     2   ar
    17     2     3   ar
    18     3     4   ar
    19     4    27    1
    20    29    27    1
    21    29    30    1
    22    30    36    1
    23    36    37   am
    24    36    38    2
    25    30    31    1
    26    31    32    1
    27    32    33    2
    28    34    33    1
    29    34    35    1
    30     4     5   ar
    31     5     6    1
    32     5     7   ar
    33     7     8   ar
    34     8     9   ar
    35     9    10   ar
    36    17    12   ar
    37    10     1   ar
    38    24    18    1
    39     9     3    1
    40    34    29    1
    41    35    31    1
    42    27    28    1
    43    37    39    1
    44    37    40    1
    45     8    11    1
@<TRIPOS>MOLECULE
*****
 40 45 0 0 0
SMALL
GASTEIGER

@<TRIPOS>ATOM
      1 C         141.6699  140.6473  161.7204 C.ar    1  UNL1        0.1669
      2 N         142.0908  140.2310  163.0987 N.ar    1  UNL1       -0.2221
      3 C         140.8631  140.1646  163.9579 C.ar    1  UNL1        0.1307
      4 C         140.6670  139.8109  165.4024 C.ar    1  UNL1        0.0777
      5 C         139.2911  139.8326  165.9997 C.ar    1  UNL1        0.0893
      6 CL        139.0949  139.4789  167.4442 Cl      1  UNL1       -0.0794
      7 C         138.1116  140.2079  165.1525 C.ar    1  UNL1        0.0863
      8 N         138.3077  140.5616  163.7081 N.ar    1  UNL1       -0.3354
      9 C         139.6835  140.5399  163.1108 C.ar    1  UNL1        0.1613
     10 N         140.1821  140.8383  161.7279 N.ar    1  UNL1       -0.2080
     11 H         137.5335  140.8079  163.1521 H       1  UNL1        0.1675
     12 C         143.5105  142.0126  160.4965 C.ar    1  UNL1        0.1428
     13 C         144.4181  142.2043  159.3176 C.ar    1  UNL1        0.0515
     14 C         144.3925  141.2224  158.1839 C.ar    1  UNL1        0.0510
     15 C         143.4594  140.0489  158.2290 C.ar    1  UNL1        0.0148
     16 C         142.5519  139.8572  159.4079 C.ar    1  UNL1        0.0074
     17 C         142.5774  140.8390  160.5416 C.ar    1  UNL1        0.0698
     18 N         145.3001  141.4141  157.0051 N.pl3   1  UNL1       -0.3046
     19 C         146.4173  142.4126  157.0734 C.3     1  UNL1        0.1081
     20 C         147.3249  142.6043  155.8946 C.3     1  UNL1        0.0938
     21 N         147.1152  141.7977  154.6476 N.3     1  UNL1       -0.2686
     22 C         148.0227  141.9894  153.4687 C.3     1  UNL1        0.0897
     23 C         145.9978  140.7991  154.5792 C.3     1  UNL1        0.0938
     24 C         145.0903  140.6074  155.7580 C.3     1  UNL1        0.1081
     25 C         142.5284  144.1042  161.6842 C.3     1  UNL1        0.2525
     26 O         143.5362  142.9945  161.6302 O.3     1  UNL1       -0.4713
     27 N         141.8466  139.4356  166.2496 N.pl3   1  UNL1       -0.3313
     28 H         142.2682  138.5524  166.1428 H       1  UNL1        0.1469
     29 C         142.3837  140.4059  167.2595 C.3     1  UNL1        0.0819
     30 C         142.8589  141.8002  166.9766 C.3     1  UNL1        0.0983
     31 C         143.3088  142.4084  168.2719 C.3     1  UNL1        0.0323
     32 C         143.4650  142.1548  169.7420 C.2     1  UNL1       -0.0304
     33 C         142.9898  140.7605  170.0249 C.2     1  UNL1       -0.0294
     34 C         142.5399  140.1523  168.7296 C.3     1  UNL1        0.0404
     35 C         142.7370  141.1708  167.6462 C.3     1  UNL1        0.0109
     36 C         142.8804  142.4690  165.6340 C.2     1  UNL1        0.2208
     37 N         144.0407  142.2547  164.7079 N.am    1  UNL1       -0.3288
     38 O         141.7416  143.3521  165.2177 O.2     1  UNL1       -0.2753
     39 H         144.7881  141.6752  164.9812 H       1  UNL1        0.1449
     40 H         144.0548  142.6937  163.8268 H       1  UNL1        0.1449
@<TRIPOS>BOND
     1    25    26    1
     2    26    12    1
     3    12    13   ar
     4    13    14   ar
     5    14    18    1
     6    18    19    1
     7    19    20    1
     8    20    21    1
     9    21    22    1
    10    21    23    1
    11    23    24    1
    12    14    15   ar
    13    15    16   ar
    14    16    17   ar
    15    17     1    1
    16     1     2   ar
    17     2     3   ar
    18     3     4   ar
    19     4    27    1
    20    29    27    1
    21    29    30    1
    22    30    36    1
    23    36    37   am
    24    36    38    2
    25    30    31    1
    26    31    32    1
    27    32    33    2
    28    34    33    1
    29    34    35    1
    30     4     5   ar
    31     5     6    1
    32     5     7   ar
    33     7     8   ar
    34     8     9   ar
    35     9    10   ar
    36    17    12   ar
    37    10     1   ar
    38    24    18    1
    39     9     3    1
    40    34    29    1
    41    35    31    1
    42    27    28    1
    43    37    39    1
    44    37    40    1
    45     8    11    1
@<TRIPOS>MOLECULE
*****
 40 45 0 0 0
SMALL
GASTEIGER

@<TRIPOS>ATOM
      1 C         139.9688  141.4865  160.0268 C.ar    1  UNL1        0.1669
      2 N         139.2117  141.4450  161.3210 N.ar    1  UNL1       -0.2221
      3 C         139.5209  140.1423  161.9973 C.ar    1  UNL1        0.1307
      4 C         139.0615  139.5527  163.2978 C.ar    1  UNL1        0.0777
      5 C         139.5504  138.1995  163.7220 C.ar    1  UNL1        0.0893
      6 CL        139.0910  137.6099  165.0226 Cl      1  UNL1       -0.0794
      7 C         140.4986  137.4360  162.8458 C.ar    1  UNL1        0.0863
      8 N         140.9580  138.0256  161.5453 N.ar    1  UNL1       -0.3354
      9 C         140.4691  139.3787  161.1210 C.ar    1  UNL1        0.1613
     10 N         140.7460  140.2095  159.9032 N.ar    1  UNL1       -0.2080
     11 H         141.5804  137.5244  160.9702 H       1  UNL1        0.1675
     12 C         140.3664  143.9880  159.4483 C.ar    1  UNL1        0.1428
     13 C         140.3494  145.1096  158.4524 C.ar    1  UNL1        0.0515
     14 C         139.9178  144.8514  157.0393 C.ar    1  UNL1        0.0510
     15 C         139.5031  143.4716  156.6219 C.ar    1  UNL1        0.0148
     16 C         139.5202  142.3500  157.6179 C.ar    1  UNL1        0.0074
     17 C         139.9518  142.6082  159.0310 C.ar    1  UNL1        0.0698
     18 N         139.9008  145.9731  156.0435 N.pl3   1  UNL1       -0.3046
     19 C         139.0978  147.2094  156.3202 C.3     1  UNL1        0.1081
     20 C         139.0808  148.3311  155.3243 C.3     1  UNL1        0.0938
     21 N         139.8667  148.2164  154.0519 N.3     1  UNL1       -0.2686
     22 C         139.8497  149.3380  153.0561 C.3     1  UNL1        0.0897
     23 C         140.6697  146.9799  153.7752 C.3     1  UNL1        0.0938
     24 C         140.6867  145.8583  154.7710 C.3     1  UNL1        0.1081
     25 C         140.0122  145.1872  161.7257 C.3     1  UNL1        0.2525
     26 O         140.7981  144.2462  160.8614 O.3     1  UNL1       -0.4713
     27 N         138.1132  140.3162  164.1741 N.pl3   1  UNL1       -0.3313
     28 H         137.2403  139.9274  164.4109 H       1  UNL1        0.1469
     29 C         138.4950  141.6721  164.6896 C.3     1  UNL1        0.0819
     30 C         139.6416  141.9755  165.6080 C.3     1  UNL1        0.0983
     31 C         139.6524  143.4535  165.8633 C.3     1  UNL1        0.0323
     32 C         138.9547  144.7441  165.5510 C.2     1  UNL1       -0.0304
     33 C         137.8081  144.4408  164.6327 C.2     1  UNL1       -0.0294
     34 C         137.7972  142.9627  164.3774 C.3     1  UNL1        0.0404
     35 C         138.9371  142.3525  165.1379 C.3     1  UNL1        0.0109
     36 C         140.6077  140.9762  166.1720 C.2     1  UNL1        0.2208
     37 N         140.3237  140.3200  167.4906 N.am    1  UNL1       -0.3288
     38 O         141.8578  140.6331  165.4173 O.2     1  UNL1       -0.2753
     39 H         139.5032  140.5452  167.9859 H       1  UNL1        0.1449
     40 H         140.9578  139.6642  167.8608 H       1  UNL1        0.1449
@<TRIPOS>BOND
     1    25    26    1
     2    26    12    1
     3    12    13   ar
     4    13    14   ar
     5    14    18    1
     6    18    19    1
     7    19    20    1
     8    20    21    1
     9    21    22    1
    10    21    23    1
    11    23    24    1
    12    14    15   ar
    13    15    16   ar
    14    16    17   ar
    15    17     1    1
    16     1     2   ar
    17     2     3   ar
    18     3     4   ar
    19     4    27    1
    20    29    27    1
    21    29    30    1
    22    30    36    1
    23    36    37   am
    24    36    38    2
    25    30    31    1
    26    31    32    1
    27    32    33    2
    28    34    33    1
    29    34    35    1
    30     4     5   ar
    31     5     6    1
    32     5     7   ar
    33     7     8   ar
    34     8     9   ar
    35     9    10   ar
    36    17    12   ar
    37    10     1   ar
    38    24    18    1
    39     9     3    1
    40    34    29    1
    41    35    31    1
    42    27    28    1
    43    37    39    1
    44    37    40    1
    45     8    11    1
@<TRIPOS>MOLECULE
*****
 40 45 0 0 0
SMALL
GASTEIGER

@<TRIPOS>ATOM
      1 C         139.3957  142.5005  160.7709 C.ar    1  UNL1        0.1669
      2 N         140.3825  141.4753  161.2453 N.ar    1  UNL1       -0.2221
      3 C         139.8156  140.8176  162.4684 C.ar    1  UNL1        0.1307
      4 C         140.3443  139.7351  163.3622 C.ar    1  UNL1        0.0777
      5 C         139.5358  139.2715  164.5376 C.ar    1  UNL1        0.0893
      6 CL        140.0644  138.1890  165.4314 Cl      1  UNL1       -0.0794
      7 C         138.1988  139.8903  164.8191 C.ar    1  UNL1        0.0863
      8 N         137.6701  140.9727  163.9253 N.ar    1  UNL1       -0.3354
      9 C         138.4785  141.4364  162.7500 C.ar    1  UNL1        0.1613
     10 N         138.2190  142.4765  161.7008 N.ar    1  UNL1       -0.2080
     11 H         136.7925  141.3788  164.1101 H       1  UNL1        0.1675
     12 C         140.1892  144.7448  159.7300 C.ar    1  UNL1        0.1428
     13 C         140.3507  145.6374  158.5353 C.ar    1  UNL1        0.0515
     14 C         139.8803  145.1784  157.1869 C.ar    1  UNL1        0.0510
     15 C         139.2484  143.8268  157.0332 C.ar    1  UNL1        0.0148
     16 C         139.0869  142.9342  158.2279 C.ar    1  UNL1        0.0074
     17 C         139.5573  143.3932  159.5763 C.ar    1  UNL1        0.0698
     18 N         140.0419  146.0710  155.9923 N.pl3   1  UNL1       -0.3046
     19 C         139.3070  147.3771  155.9272 C.3     1  UNL1        0.1081
     20 C         139.4686  148.2697  154.7326 C.3     1  UNL1        0.0938
     21 N         140.3648  147.8564  153.6032 N.3     1  UNL1       -0.2686
     22 C         140.5264  148.7490  152.4086 C.3     1  UNL1        0.0897
     23 C         141.0997  146.5503  153.6682 C.3     1  UNL1        0.0938
     24 C         140.9382  145.6576  154.8629 C.3     1  UNL1        0.1081
     25 C         139.8895  146.2529  161.8242 C.3     1  UNL1        0.2525
     26 O         140.6597  145.2039  161.0782 O.3     1  UNL1       -0.4713
     27 N         141.6814  139.1163  163.0807 N.pl3   1  UNL1       -0.3313
     28 H         141.7359  138.1882  162.7567 H       1  UNL1        0.1469
     29 C         142.9355  139.9114  163.2928 C.3     1  UNL1        0.0819
     30 C         143.6833  140.0502  164.5856 C.3     1  UNL1        0.0983
     31 C         144.8719  140.9320  164.3412 C.3     1  UNL1        0.0323
     32 C         145.5983  141.7279  163.2978 C.2     1  UNL1       -0.0304
     33 C         144.8505  141.5892  162.0050 C.2     1  UNL1       -0.0294
     34 C         143.6619  140.7074  162.2494 C.3     1  UNL1        0.0404
     35 C         143.6751  140.3012  163.6933 C.3     1  UNL1        0.0109
     36 C         143.3084  139.4181  165.8934 C.2     1  UNL1        0.2208
     37 N         142.5183  140.1964  166.9033 N.am    1  UNL1       -0.3288
     38 O         143.7236  138.0078  166.1910 O.2     1  UNL1       -0.2753
     39 H         142.2458  141.1221  166.7079 H       1  UNL1        0.1449
     40 H         142.2723  139.7816  167.7616 H       1  UNL1        0.1449
@<TRIPOS>BOND
     1    25    26    1
     2    26    12    1
     3    12    13   ar
     4    13    14   ar
     5    14    18    1
     6    18    19    1
     7    19    20    1
     8    20    21    1
     9    21    22    1
    10    21    23    1
    11    23    24    1
    12    14    15   ar
    13    15    16   ar
    14    16    17   ar
    15    17     1    1
    16     1     2   ar
    17     2     3   ar
    18     3     4   ar
    19     4    27    1
    20    29    27    1
    21    29    30    1
    22    30    36    1
    23    36    37   am
    24    36    38    2
    25    30    31    1
    26    31    32    1
    27    32    33    2
    28    34    33    1
    29    34    35    1
    30     4     5   ar
    31     5     6    1
    32     5     7   ar
    33     7     8   ar
    34     8     9   ar
    35     9    10   ar
    36    17    12   ar
    37    10     1   ar
    38    24    18    1
    39     9     3    1
    40    34    29    1
    41    35    31    1
    42    27    28    1
    43    37    39    1
    44    37    40    1
    45     8    11    1
@<TRIPOS>MOLECULE
*****
 40 45 0 0 0
SMALL
GASTEIGER

@<TRIPOS>ATOM
      1 C         142.0198  143.4058  160.3828 C.ar    1  UNL1        0.1669
      2 N         140.8511  142.5756  160.8244 N.ar    1  UNL1       -0.2221
      3 C         140.2261  143.2487  162.0102 C.ar    1  UNL1        0.1307
      4 C         139.0456  142.8878  162.8623 C.ar    1  UNL1        0.0777
      5 C         138.6475  143.7732  164.0059 C.ar    1  UNL1        0.0893
      6 CL        137.4669  143.4123  164.8581 Cl      1  UNL1       -0.0794
      7 C         139.4298  145.0193  164.2973 C.ar    1  UNL1        0.0863
      8 N         140.6102  145.3802  163.4451 N.ar    1  UNL1       -0.3354
      9 C         141.0084  144.4949  162.3016 C.ar    1  UNL1        0.1613
     10 N         142.1170  144.5920  161.2958 N.ar    1  UNL1       -0.2080
     11 H         141.1237  146.1982  163.6364 H       1  UNL1        0.1675
     12 C         144.3401  142.6563  159.4862 C.ar    1  UNL1        0.1428
     13 C         145.2516  142.3535  158.3339 C.ar    1  UNL1        0.0515
     14 C         144.7541  142.4975  156.9261 C.ar    1  UNL1        0.0510
     15 C         143.3452  142.9443  156.6706 C.ar    1  UNL1        0.0148
     16 C         142.4338  143.2471  157.8229 C.ar    1  UNL1        0.0074
     17 C         142.9312  143.1031  159.2306 C.ar    1  UNL1        0.0698
     18 N         145.6655  142.1948  155.7739 N.pl3   1  UNL1       -0.3046
     19 C         145.0939  141.9595  154.4072 C.3     1  UNL1        0.1081
     20 C         146.0053  141.6567  153.2550 C.3     1  UNL1        0.0938
     21 N         147.4883  141.5892  153.4694 N.3     1  UNL1       -0.2686
     22 C         148.3998  141.2864  152.3172 C.3     1  UNL1        0.0897
     23 C         148.0600  141.8245  154.8362 C.3     1  UNL1        0.0938
     24 C         147.1486  142.1272  155.9884 C.3     1  UNL1        0.1081
     25 C         144.5928  141.2398  161.6494 C.3     1  UNL1        0.2525
     26 O         144.8377  142.5122  160.8939 O.3     1  UNL1       -0.4713
     27 N         138.2632  141.6415  162.5710 N.pl3   1  UNL1       -0.3313
     28 H         137.5764  141.6451  161.8657 H       1  UNL1        0.1469
     29 C         138.5273  140.3899  163.3543 C.3     1  UNL1        0.0819
     30 C         139.2349  139.1671  162.8502 C.3     1  UNL1        0.0983
     31 C         139.2751  138.1627  163.9636 C.3     1  UNL1        0.0323
     32 C         138.8780  137.9141  165.3885 C.2     1  UNL1       -0.0304
     33 C         138.1704  139.1368  165.8927 C.2     1  UNL1       -0.0294
     34 C         138.1302  140.1412  164.7793 C.3     1  UNL1        0.0404
     35 C         138.8129  139.5393  163.5870 C.3     1  UNL1        0.0109
     36 C         139.8026  138.9813  161.4742 C.2     1  UNL1        0.2208
     37 N         141.0745  139.6761  161.0875 N.am    1  UNL1       -0.3288
     38 O         139.0983  138.1008  160.4850 O.2     1  UNL1       -0.2753
     39 H         141.5367  140.2541  161.7368 H       1  UNL1        0.1449
     40 H         141.4470  139.5542  160.1845 H       1  UNL1        0.1449
@<TRIPOS>BOND
     1    25    26    1
     2    26    12    1
     3    12    13   ar
     4    13    14   ar
     5    14    18    1
     6    18    19    1
     7    19    20    1
     8    20    21    1
     9    21    22    1
    10    21    23    1
    11    23    24    1
    12    14    15   ar
    13    15    16   ar
    14    16    17   ar
    15    17     1    1
    16     1     2   ar
    17     2     3   ar
    18     3     4   ar
    19     4    27    1
    20    29    27    1
    21    29    30    1
    22    30    36    1
    23    36    37   am
    24    36    38    2
    25    30    31    1
    26    31    32    1
    27    32    33    2
    28    34    33    1
    29    34    35    1
    30     4     5   ar
    31     5     6    1
    32     5     7   ar
    33     7     8   ar
    34     8     9   ar
    35     9    10   ar
    36    17    12   ar
    37    10     1   ar
    38    24    18    1
    39     9     3    1
    40    34    29    1
    41    35    31    1
    42    27    28    1
    43    37    39    1
    44    37    40    1
    45     8    11    1
@<TRIPOS>MOLECULE
*****
 40 45 0 0 0
SMALL
GASTEIGER

@<TRIPOS>ATOM
      1 C         140.2802  141.1469  160.2821 C.ar    1  UNL1        0.1669
      2 N         140.0955  141.0653  161.7685 N.ar    1  UNL1       -0.2221
      3 C         139.7681  142.4402  162.2710 C.ar    1  UNL1        0.1307
      4 C         139.4838  142.9644  163.6474 C.ar    1  UNL1        0.0777
      5 C         139.1819  144.4200  163.8480 C.ar    1  UNL1        0.0893
      6 CL        138.8976  144.9442  165.2244 Cl      1  UNL1       -0.0794
      7 C         139.1643  145.3512  162.6723 C.ar    1  UNL1        0.0863
      8 N         139.4487  144.8270  161.2959 N.ar    1  UNL1       -0.3354
      9 C         139.7506  143.3715  161.0953 C.ar    1  UNL1        0.1613
     10 N         140.0670  142.5722  159.8661 N.ar    1  UNL1       -0.2080
     11 H         139.4371  145.4383  160.5243 H       1  UNL1        0.1675
     12 C         139.5450  139.3597  158.5457 C.ar    1  UNL1        0.1428
     13 C         139.8836  138.2166  157.6352 C.ar    1  UNL1        0.0515
     14 C         141.2957  137.7179  157.5507 C.ar    1  UNL1        0.0510
     15 C         142.3693  138.3621  158.3767 C.ar    1  UNL1        0.0148
     16 C         142.0307  139.5051  159.2872 C.ar    1  UNL1        0.0074
     17 C         140.6186  140.0039  159.3717 C.ar    1  UNL1        0.0698
     18 N         141.6341  136.5748  156.6402 N.pl3   1  UNL1       -0.3046
     19 C         140.7527  136.2643  155.4670 C.3     1  UNL1        0.1081
     20 C         141.0911  135.1213  154.5565 C.3     1  UNL1        0.0938
     21 N         142.3109  134.2889  154.8192 N.3     1  UNL1       -0.2686
     22 C         142.6494  133.1459  153.9087 C.3     1  UNL1        0.0897
     23 C         143.1925  134.5995  155.9925 C.3     1  UNL1        0.0938
     24 C         142.8540  135.7425  156.9030 C.3     1  UNL1        0.1081
     25 C         137.6425  140.8902  157.6581 C.3     1  UNL1        0.2525
     26 O         138.1329  139.8584  158.6301 O.3     1  UNL1       -0.4713
     27 N         139.5014  142.0331  164.8232 N.pl3   1  UNL1       -0.3313
     28 H         138.7698  141.3866  164.9501 H       1  UNL1        0.1469
     29 C         140.6336  142.0867  165.8056 C.3     1  UNL1        0.0819
     30 C         142.0754  141.8019  165.5055 C.3     1  UNL1        0.0983
     31 C         142.8558  141.9738  166.7750 C.3     1  UNL1        0.0323
     32 C         142.7450  142.3216  168.2299 C.2     1  UNL1       -0.0304
     33 C         141.3032  142.6064  168.5299 C.2     1  UNL1       -0.0294
     34 C         140.5229  142.4346  167.2605 C.3     1  UNL1        0.0404
     35 C         141.4824  142.0436  166.1758 C.3     1  UNL1        0.0109
     36 C         142.6381  141.4135  164.1704 C.2     1  UNL1        0.2208
     37 N         142.4632  140.0134  163.6614 N.am    1  UNL1       -0.3288
     38 O         143.3757  142.4252  163.3443 O.2     1  UNL1       -0.2753
     39 H         141.9791  139.3494  164.2036 H       1  UNL1        0.1449
     40 H         142.8326  139.7584  162.7851 H       1  UNL1        0.1449
@<TRIPOS>BOND
     1    25    26    1
     2    26    12    1
     3    12    13   ar
     4    13    14   ar
     5    14    18    1
     6    18    19    1
     7    19    20    1
     8    20    21    1
     9    21    22    1
    10    21    23    1
    11    23    24    1
    12    14    15   ar
    13    15    16   ar
    14    16    17   ar
    15    17     1    1
    16     1     2   ar
    17     2     3   ar
    18     3     4   ar
    19     4    27    1
    20    29    27    1
    21    29    30    1
    22    30    36    1
    23    36    37   am
    24    36    38    2
    25    30    31    1
    26    31    32    1
    27    32    33    2
    28    34    33    1
    29    34    35    1
    30     4     5   ar
    31     5     6    1
    32     5     7   ar
    33     7     8   ar
    34     8     9   ar
    35     9    10   ar
    36    17    12   ar
    37    10     1   ar
    38    24    18    1
    39     9     3    1
    40    34    29    1
    41    35    31    1
    42    27    28    1
    43    37    39    1
    44    37    40    1
    45     8    11    1
@<TRIPOS>MOLECULE
*****
 40 45 0 0 0
SMALL
GASTEIGER

@<TRIPOS>ATOM
      1 C         139.8880  142.0164  161.8938 C.ar    1  UNL1        0.1669
      2 N         140.7585  142.0609  163.1145 N.ar    1  UNL1       -0.2221
      3 C         140.0659  141.2996  164.2057 C.ar    1  UNL1        0.1307
      4 C         140.4499  141.0088  165.6262 C.ar    1  UNL1        0.0777
      5 C         139.5352  140.2029  166.5004 C.ar    1  UNL1        0.0893
      6 CL        139.9193  139.9121  167.9210 Cl      1  UNL1       -0.0794
      7 C         138.2368  139.6879  165.9540 C.ar    1  UNL1        0.0863
      8 N         137.8528  139.9787  164.5335 N.ar    1  UNL1       -0.3354
      9 C         138.7673  140.7846  163.6593 C.ar    1  UNL1        0.1613
     10 N         138.6574  141.2276  162.2305 N.ar    1  UNL1       -0.2080
     11 H         137.0005  139.6407  164.1749 H       1  UNL1        0.1675
     12 C         139.8738  144.0965  160.3371 C.ar    1  UNL1        0.1428
     13 C         140.1802  144.7296  159.0122 C.ar    1  UNL1        0.0515
     14 C         140.8070  143.9158  157.9191 C.ar    1  UNL1        0.0510
     15 C         141.1274  142.4689  158.1508 C.ar    1  UNL1        0.0148
     16 C         140.8211  141.8358  159.4758 C.ar    1  UNL1        0.0074
     17 C         140.1943  142.6496  160.5689 C.ar    1  UNL1        0.0698
     18 N         141.1133  144.5490  156.5942 N.pl3   1  UNL1       -0.3046
     19 C         142.4151  144.2593  155.9077 C.3     1  UNL1        0.1081
     20 C         142.7214  144.8924  154.5828 C.3     1  UNL1        0.0938
     21 N         141.7260  145.8152  153.9445 N.3     1  UNL1       -0.2686
     22 C         142.0323  146.4483  152.6196 C.3     1  UNL1        0.0897
     23 C         140.4241  146.1049  154.6310 C.3     1  UNL1        0.0938
     24 C         140.1178  145.4717  155.9559 C.3     1  UNL1        0.1081
     25 C         140.0744  145.8976  162.1988 C.3     1  UNL1        0.2525
     26 O         139.2470  144.9103  161.4302 O.3     1  UNL1       -0.4713
     27 N         141.7485  141.5238  166.1727 N.pl3   1  UNL1       -0.3313
     28 H         141.7658  141.9991  167.0346 H       1  UNL1        0.1469
     29 C         143.0205  141.3146  165.4058 C.3     1  UNL1        0.0819
     30 C         143.7043  139.9998  165.1744 C.3     1  UNL1        0.0983
     31 C         144.9385  140.2560  164.3613 C.3     1  UNL1        0.0323
     32 C         145.7500  141.3248  163.6912 C.2     1  UNL1       -0.0304
     33 C         145.0662  142.6396  163.9225 C.2     1  UNL1       -0.0294
     34 C         143.8320  142.3834  164.7357 C.3     1  UNL1        0.0404
     35 C         143.7531  140.9102  165.0069 C.3     1  UNL1        0.0109
     36 C         143.2362  138.6633  165.6693 C.2     1  UNL1        0.2208
     37 N         143.9276  138.0085  166.8283 N.am    1  UNL1       -0.3288
     38 O         142.0768  137.9817  165.0052 O.2     1  UNL1       -0.2753
     39 H         144.6885  138.4559  167.2642 H       1  UNL1        0.1449
     40 H         143.6203  137.1314  167.1531 H       1  UNL1        0.1449
@<TRIPOS>BOND
     1    25    26    1
     2    26    12    1
     3    12    13   ar
     4    13    14   ar
     5    14    18    1
     6    18    19    1
     7    19    20    1
     8    20    21    1
     9    21    22    1
    10    21    23    1
    11    23    24    1
    12    14    15   ar
    13    15    16   ar
    14    16    17   ar
    15    17     1    1
    16     1     2   ar
    17     2     3   ar
    18     3     4   ar
    19     4    27    1
    20    29    27    1
    21    29    30    1
    22    30    36    1
    23    36    37   am
    24    36    38    2
    25    30    31    1
    26    31    32    1
    27    32    33    2
    28    34    33    1
    29    34    35    1
    30     4     5   ar
    31     5     6    1
    32     5     7   ar
    33     7     8   ar
    34     8     9   ar
    35     9    10   ar
    36    17    12   ar
    37    10     1   ar
    38    24    18    1
    39     9     3    1
    40    34    29    1
    41    35    31    1
    42    27    28    1
    43    37    39    1
    44    37    40    1
    45     8    11    1
@<TRIPOS>MOLECULE
*****
 40 45 0 0 0
SMALL
GASTEIGER

@<TRIPOS>ATOM
      1 C         139.7678  141.4716  160.1295 C.ar    1  UNL1        0.1669
      2 N         140.9075  141.0469  161.0075 N.ar    1  UNL1       -0.2221
      3 C         140.4384  139.9008  161.8538 C.ar    1  UNL1        0.1307
      4 C         141.1283  139.0788  162.9018 C.ar    1  UNL1        0.0777
      5 C         140.3886  137.9731  163.5949 C.ar    1  UNL1        0.0893
      6 CL        141.0786  137.1510  164.6430 Cl      1  UNL1       -0.0794
      7 C         138.9591  137.6895  163.2400 C.ar    1  UNL1        0.0863
      8 N         138.2692  138.5114  162.1921 N.ar    1  UNL1       -0.3354
      9 C         139.0088  139.6171  161.4989 C.ar    1  UNL1        0.1613
     10 N         138.5944  140.5880  160.4332 N.ar    1  UNL1       -0.2080
     11 H         137.3310  138.3253  161.9591 H       1  UNL1        0.1675
     12 C         140.1999  143.9663  159.5464 C.ar    1  UNL1        0.1428
     13 C         140.2285  145.0792  158.5411 C.ar    1  UNL1        0.0515
     14 C         139.8539  144.8105  157.1137 C.ar    1  UNL1        0.0510
     15 C         139.4505  143.4288  156.6916 C.ar    1  UNL1        0.0148
     16 C         139.4219  142.3158  157.6969 C.ar    1  UNL1        0.0074
     17 C         139.7965  142.5846  159.1243 C.ar    1  UNL1        0.0698
     18 N         139.8825  145.9234  156.1085 N.pl3   1  UNL1       -0.3046
     19 C         139.0935  147.1754  156.3531 C.3     1  UNL1        0.1081
     20 C         139.1222  148.2884  155.3479 C.3     1  UNL1        0.0938
     21 N         139.9398  148.1494  154.0981 N.3     1  UNL1       -0.2686
     22 C         139.9685  149.2623  153.0928 C.3     1  UNL1        0.0897
     23 C         140.7289  146.8973  153.8534 C.3     1  UNL1        0.0938
     24 C         140.7002  145.7843  154.8587 C.3     1  UNL1        0.1081
     25 C         139.5480  144.7618  161.9322 C.3     1  UNL1        0.2525
     26 O         140.5745  144.2351  160.9737 O.3     1  UNL1       -0.4713
     27 N         142.5579  139.3624  163.2568 N.pl3   1  UNL1       -0.3313
     28 H         143.2821  138.8513  162.8285 H       1  UNL1        0.1469
     29 C         142.8839  140.4248  164.2642 C.3     1  UNL1        0.0819
     30 C         143.6026  141.7119  163.9869 C.3     1  UNL1        0.0983
     31 C         143.7114  142.4693  165.2771 C.3     1  UNL1        0.0323
     32 C         143.3761  142.4311  166.7387 C.2     1  UNL1       -0.0304
     33 C         142.6574  141.1440  167.0159 C.2     1  UNL1       -0.0294
     34 C         142.5486  140.3867  165.7257 C.3     1  UNL1        0.0404
     35 C         143.2000  141.2057  164.6511 C.3     1  UNL1        0.0109
     36 C         144.1214  142.1626  162.6535 C.2     1  UNL1        0.2208
     37 N         143.2395  142.9547  161.7344 N.am    1  UNL1       -0.3288
     38 O         145.5220  141.8211  162.2394 O.2     1  UNL1       -0.2753
     39 H         142.3202  143.1788  162.0063 H       1  UNL1        0.1449
     40 H         143.5800  143.2505  160.8593 H       1  UNL1        0.1449
@<TRIPOS>BOND
     1    25    26    1
     2    26    12    1
     3    12    13   ar
     4    13    14   ar
     5    14    18    1
     6    18    19    1
     7    19    20    1
     8    20    21    1
     9    21    22    1
    10    21    23    1
    11    23    24    1
    12    14    15   ar
    13    15    16   ar
    14    16    17   ar
    15    17     1    1
    16     1     2   ar
    17     2     3   ar
    18     3     4   ar
    19     4    27    1
    20    29    27    1
    21    29    30    1
    22    30    36    1
    23    36    37   am
    24    36    38    2
    25    30    31    1
    26    31    32    1
    27    32    33    2
    28    34    33    1
    29    34    35    1
    30     4     5   ar
    31     5     6    1
    32     5     7   ar
    33     7     8   ar
    34     8     9   ar
    35     9    10   ar
    36    17    12   ar
    37    10     1   ar
    38    24    18    1
    39     9     3    1
    40    34    29    1
    41    35    31    1
    42    27    28    1
    43    37    39    1
    44    37    40    1
    45     8    11    1
