@<TRIPOS>MOLECULE
*****
 21 23 0 0 0
SMALL
GASTEIGER

@<TRIPOS>ATOM
      1 C         139.7694  140.4666  165.6844 C.ar    1  UNL1       -0.0144
      2 C         138.9509  139.5775  164.7958 C.ar    1  UNL1        0.0051
      3 S         138.0539  140.4490  163.9677 S.2     1  UNL1       -0.0915
      4 C         138.3179  141.8767  164.3444 C.ar    1  UNL1        0.0288
      5 C         137.7299  143.1682  163.8585 C.ar    1  UNL1        0.0065
      6 C         138.2021  144.4706  164.4335 C.ar    1  UNL1        0.0005
      7 C         139.2624  144.4815  165.4945 C.ar    1  UNL1        0.0000
      8 C         139.8504  143.1900  165.9805 C.ar    1  UNL1        0.0002
      9 C         139.3782  141.8876  165.4054 C.ar    1  UNL1        0.0025
     10 C         142.0767  139.3899  166.2016 C.3     1  UNL1        0.0111
     11 C         140.7984  140.0142  166.6776 C.3     1  UNL1        0.0632
     12 C         140.5494  140.1861  168.1467 C.ar    1  UNL1        0.0698
     13 C         141.5250  140.7280  169.1489 C.ar    1  UNL1        0.0519
     14 S         140.8595  140.7230  170.4932 S.2     1  UNL1       -0.0643
     15 C         139.4726  140.1780  170.3218 C.ar    1  UNL1        0.1341
     16 N         139.2809  139.8461  168.8715 N.ar    1  UNL1       -0.2403
     17 C         139.0178  138.0799  164.7444 C.3     1  UNL1        0.0499
     18 C         138.9434  137.3707  163.4248 C.3     1  UNL1        0.0774
     19 N         139.9384  137.6852  162.3472 N.3     1  UNL1       -0.2700
     20 C         141.4064  137.5284  162.6128 C.3     1  UNL1        0.0897
     21 C         139.4653  138.1565  161.0040 C.3     1  UNL1        0.0897
@<TRIPOS>BOND
     1    11    10    1
     2    11    12    1
     3    12    13   ar
     4    13    14   ar
     5    14    15   ar
     6    15    16   ar
     7    11     1    1
     8     1     2   ar
     9     2    17    1
    10    17    18    1
    11    18    19    1
    12    19    20    1
    13    19    21    1
    14     2     3   ar
    15     3     4   ar
    16     4     5   ar
    17     5     6   ar
    18     6     7   ar
    19     7     8   ar
    20     8     9   ar
    21    16    12   ar
    22     9     1   ar
    23     9     4   ar
@<TRIPOS>MOLECULE
*****
 21 23 0 0 0
SMALL
GASTEIGER

@<TRIPOS>ATOM
      1 C         139.3601  140.7833  166.0705 C.ar    1  UNL1       -0.0144
      2 C         140.2700  141.2712  167.1585 C.ar    1  UNL1        0.0051
      3 S         140.4082  142.7579  167.0152 S.2     1  UNL1       -0.0915
      4 C         139.5837  143.1888  165.8385 C.ar    1  UNL1        0.0288
      5 C         139.3391  144.5348  165.2233 C.ar    1  UNL1        0.0065
      6 C         138.4467  144.6603  164.0243 C.ar    1  UNL1        0.0005
      7 C         137.7988  143.4399  163.4404 C.ar    1  UNL1        0.0000
      8 C         138.0435  142.0939  164.0556 C.ar    1  UNL1        0.0002
      9 C         138.9359  141.9684  165.2547 C.ar    1  UNL1        0.0025
     10 C         137.9503  138.7102  166.7526 C.3     1  UNL1        0.0111
     11 C         138.9468  139.3600  165.8388 C.3     1  UNL1        0.0632
     12 C         139.5299  138.5866  164.6936 C.ar    1  UNL1        0.0698
     13 C         140.8025  137.7931  164.7226 C.ar    1  UNL1        0.0519
     14 S         141.0019  137.1869  163.3652 S.2     1  UNL1       -0.0643
     15 C         139.8526  137.6057  162.4971 C.ar    1  UNL1        0.1341
     16 N         138.9428  138.4708  163.3182 N.ar    1  UNL1       -0.2403
     17 C         140.9265  140.4216  168.2060 C.3     1  UNL1        0.0499
     18 C         142.3621  140.6572  168.5714 C.3     1  UNL1        0.0774
     19 N         142.7034  141.4359  169.8072 N.3     1  UNL1       -0.2700
     20 C         141.8596  141.2950  171.0394 C.3     1  UNL1        0.0897
     21 C         143.8885  142.3554  169.8109 C.3     1  UNL1        0.0897
@<TRIPOS>BOND
     1    11    10    1
     2    11    12    1
     3    12    13   ar
     4    13    14   ar
     5    14    15   ar
     6    15    16   ar
     7    11     1    1
     8     1     2   ar
     9     2    17    1
    10    17    18    1
    11    18    19    1
    12    19    20    1
    13    19    21    1
    14     2     3   ar
    15     3     4   ar
    16     4     5   ar
    17     5     6   ar
    18     6     7   ar
    19     7     8   ar
    20     8     9   ar
    21    16    12   ar
    22     9     1   ar
    23     9     4   ar
@<TRIPOS>MOLECULE
*****
 21 23 0 0 0
SMALL
GASTEIGER

@<TRIPOS>ATOM
      1 C         142.8785  139.0043  165.0390 C.ar    1  UNL1       -0.0144
      2 C         141.6882  138.5131  164.2696 C.ar    1  UNL1        0.0051
      3 S         141.7365  139.1246  162.9008 S.2     1  UNL1       -0.0915
      4 C         142.9566  139.9937  162.8241 C.ar    1  UNL1        0.0288
      5 C         143.5161  140.8432  161.7218 C.ar    1  UNL1        0.0065
      6 C         144.7815  141.6183  161.9409 C.ar    1  UNL1        0.0005
      7 C         145.4873  141.5440  163.2624 C.ar    1  UNL1        0.0000
      8 C         144.9278  140.6945  164.3647 C.ar    1  UNL1        0.0002
      9 C         143.6624  139.9193  164.1456 C.ar    1  UNL1        0.0025
     10 C         144.3166  137.6534  166.7293 C.3     1  UNL1        0.0111
     11 C         143.2242  138.6437  166.4534 C.3     1  UNL1        0.0632
     12 C         142.4776  139.2733  167.5918 C.ar    1  UNL1        0.0698
     13 C         141.2589  140.1400  167.4750 C.ar    1  UNL1        0.0519
     14 S         140.8468  140.5491  168.8580 S.2     1  UNL1       -0.0643
     15 C         141.8107  139.9354  169.8296 C.ar    1  UNL1        0.1341
     16 N         142.8187  139.1468  169.0470 N.ar    1  UNL1       -0.2403
     17 C         140.6346  137.5751  164.7796 C.3     1  UNL1        0.0499
     18 C         139.1844  137.8745  164.5404 C.3     1  UNL1        0.0774
     19 N         138.4933  138.9313  165.3501 N.3     1  UNL1       -0.2700
     20 C         137.8974  138.5853  166.6825 C.3     1  UNL1        0.0897
     21 C         138.3981  140.3341  164.8275 C.3     1  UNL1        0.0897
@<TRIPOS>BOND
     1    11    10    1
     2    11    12    1
     3    12    13   ar
     4    13    14   ar
     5    14    15   ar
     6    15    16   ar
     7    11     1    1
     8     1     2   ar
     9     2    17    1
    10    17    18    1
    11    18    19    1
    12    19    20    1
    13    19    21    1
    14     2     3   ar
    15     3     4   ar
    16     4     5   ar
    17     5     6   ar
    18     6     7   ar
    19     7     8   ar
    20     8     9   ar
    21    16    12   ar
    22     9     1   ar
    23     9     4   ar
@<TRIPOS>MOLECULE
*****
 21 23 0 0 0
SMALL
GASTEIGER

@<TRIPOS>ATOM
      1 C         142.3113  140.5623  165.4952 C.ar    1  UNL1       -0.0144
      2 C         143.2203  139.6402  164.7378 C.ar    1  UNL1        0.0051
      3 S         142.4437  138.4042  164.3928 S.2     1  UNL1       -0.0915
      4 C         141.0548  138.5623  164.9369 C.ar    1  UNL1        0.0288
      5 C         139.8541  137.6640  164.9001 C.ar    1  UNL1        0.0065
      6 C         138.5716  138.0996  165.5445 C.ar    1  UNL1        0.0005
      7 C         138.4898  139.4334  166.2259 C.ar    1  UNL1        0.0000
      8 C         139.6905  140.3317  166.2627 C.ar    1  UNL1        0.0002
      9 C         140.9730  139.8961  165.6183 C.ar    1  UNL1        0.0025
     10 C         142.9916  142.0789  167.4920 C.3     1  UNL1        0.0111
     11 C         142.6766  141.9134  166.0347 C.3     1  UNL1        0.0632
     12 C         142.7268  143.0989  165.1173 C.ar    1  UNL1        0.0698
     13 C         141.5504  143.7487  164.4510 C.ar    1  UNL1        0.0519
     14 S         142.0588  144.8943  163.6269 S.2     1  UNL1       -0.0643
     15 C         143.5494  144.9526  163.7838 C.ar    1  UNL1        0.1341
     16 N         143.9623  143.8430  164.7050 N.ar    1  UNL1       -0.2403
     17 C         144.6540  139.9074  164.3869 C.3     1  UNL1        0.0499
     18 C         144.9897  140.7300  163.1785 C.3     1  UNL1        0.0774
     19 N         144.1196  140.6606  161.9586 N.3     1  UNL1       -0.2700
     20 C         143.2362  141.8189  161.6005 C.3     1  UNL1        0.0897
     21 C         144.1328  139.4330  161.0968 C.3     1  UNL1        0.0897
@<TRIPOS>BOND
     1    11    10    1
     2    11    12    1
     3    12    13   ar
     4    13    14   ar
     5    14    15   ar
     6    15    16   ar
     7    11     1    1
     8     1     2   ar
     9     2    17    1
    10    17    18    1
    11    18    19    1
    12    19    20    1
    13    19    21    1
    14     2     3   ar
    15     3     4   ar
    16     4     5   ar
    17     5     6   ar
    18     6     7   ar
    19     7     8   ar
    20     8     9   ar
    21    16    12   ar
    22     9     1   ar
    23     9     4   ar
@<TRIPOS>MOLECULE
*****
 21 23 0 0 0
SMALL
GASTEIGER

@<TRIPOS>ATOM
      1 C         140.4076  140.4309  165.5911 C.ar    1  UNL1       -0.0144
      2 C         139.4958  139.3999  164.9948 C.ar    1  UNL1        0.0051
      3 S         138.2983  140.1086  164.4347 S.2     1  UNL1       -0.0915
      4 C         138.4700  141.5776  164.6848 C.ar    1  UNL1        0.0288
      5 C         137.6077  142.7596  164.3541 C.ar    1  UNL1        0.0065
      6 C         138.0491  144.1407  164.7381 C.ar    1  UNL1        0.0005
      7 C         139.3528  144.3399  165.4528 C.ar    1  UNL1        0.0000
      8 C         140.2150  143.1580  165.7835 C.ar    1  UNL1        0.0002
      9 C         139.7737  141.7768  165.3995 C.ar    1  UNL1        0.0025
     10 C         141.7741  139.9161  167.7400 C.3     1  UNL1        0.0111
     11 C         141.7226  140.1631  166.2613 C.3     1  UNL1        0.0632
     12 C         142.9859  140.1424  165.4531 C.ar    1  UNL1        0.0698
     13 C         143.5270  141.2760  164.6334 C.ar    1  UNL1        0.0519
     14 S         144.8056  140.8185  163.9963 S.2     1  UNL1       -0.0643
     15 C         145.0547  139.4021  164.4221 C.ar    1  UNL1        0.1341
     16 N         143.9301  138.9841  165.3225 N.ar    1  UNL1       -0.2403
     17 C         139.7388  137.9200  164.9640 C.3     1  UNL1        0.0499
     18 C         140.8624  137.3614  164.1422 C.3     1  UNL1        0.0774
     19 N         141.0185  137.7717  162.7078 N.3     1  UNL1       -0.2700
     20 C         139.8113  137.8856  161.8247 C.3     1  UNL1        0.0897
     21 C         142.3816  138.0681  162.1566 C.3     1  UNL1        0.0897
@<TRIPOS>BOND
     1    11    10    1
     2    11    12    1
     3    12    13   ar
     4    13    14   ar
     5    14    15   ar
     6    15    16   ar
     7    11     1    1
     8     1     2   ar
     9     2    17    1
    10    17    18    1
    11    18    19    1
    12    19    20    1
    13    19    21    1
    14     2     3   ar
    15     3     4   ar
    16     4     5   ar
    17     5     6   ar
    18     6     7   ar
    19     7     8   ar
    20     8     9   ar
    21    16    12   ar
    22     9     1   ar
    23     9     4   ar
@<TRIPOS>MOLECULE
*****
 21 23 0 0 0
SMALL
GASTEIGER

@<TRIPOS>ATOM
      1 C         141.9036  139.9755  165.5987 C.ar    1  UNL1       -0.0144
      2 C         142.2253  138.7669  164.7706 C.ar    1  UNL1        0.0051
      3 S         143.4652  139.0633  163.9801 S.2     1  UNL1       -0.0915
      4 C         143.9098  140.4550  164.3197 C.ar    1  UNL1        0.0288
      5 C         145.0688  141.2818  163.8473 C.ar    1  UNL1        0.0065
      6 C         145.2626  142.6723  164.3752 C.ar    1  UNL1        0.0005
      7 C         144.2975  143.2361  165.3755 C.ar    1  UNL1        0.0000
      8 C         143.1385  142.4094  165.8480 C.ar    1  UNL1        0.0002
      9 C         142.9447  141.0188  165.3201 C.ar    1  UNL1        0.0025
     10 C         139.3667  140.3650  166.0016 C.3     1  UNL1        0.0111
     11 C         140.7444  140.1161  166.5402 C.3     1  UNL1        0.0632
     12 C         140.9628  140.0079  168.0202 C.ar    1  UNL1        0.0698
     13 C         142.2915  139.9385  168.7127 C.ar    1  UNL1        0.0519
     14 S         142.0406  139.8377  170.1881 S.2     1  UNL1       -0.0643
     15 C         140.5569  139.8448  170.4076 C.ar    1  UNL1        0.1341
     16 N         139.8906  139.9500  169.0677 N.ar    1  UNL1       -0.2403
     17 C         141.4442  137.4867  164.7386 C.3     1  UNL1        0.0499
     18 C         140.9698  136.9301  163.4290 C.3     1  UNL1        0.0774
     19 N         140.0891  137.7554  162.5383 N.3     1  UNL1       -0.2700
     20 C         140.6310  138.3119  161.2550 C.3     1  UNL1        0.0897
     21 C         138.6666  138.0242  162.9308 C.3     1  UNL1        0.0897
@<TRIPOS>BOND
     1    11    10    1
     2    11    12    1
     3    12    13   ar
     4    13    14   ar
     5    14    15   ar
     6    15    16   ar
     7    11     1    1
     8     1     2   ar
     9     2    17    1
    10    17    18    1
    11    18    19    1
    12    19    20    1
    13    19    21    1
    14     2     3   ar
    15     3     4   ar
    16     4     5   ar
    17     5     6   ar
    18     6     7   ar
    19     7     8   ar
    20     8     9   ar
    21    16    12   ar
    22     9     1   ar
    23     9     4   ar
@<TRIPOS>MOLECULE
*****
 21 23 0 0 0
SMALL
GASTEIGER

@<TRIPOS>ATOM
      1 C         142.3132  140.0721  165.9613 C.ar    1  UNL1       -0.0144
      2 C         143.1463  139.2550  165.0189 C.ar    1  UNL1        0.0051
      3 S         142.2762  138.1742  164.4490 S.2     1  UNL1       -0.0915
      4 C         140.9053  138.3233  165.0392 C.ar    1  UNL1        0.0288
      5 C         139.6391  137.5426  164.8463 C.ar    1  UNL1        0.0065
      6 C         138.3958  137.9348  165.5882 C.ar    1  UNL1        0.0005
      7 C         138.4187  139.1078  166.5229 C.ar    1  UNL1        0.0000
      8 C         139.6849  139.8885  166.7158 C.ar    1  UNL1        0.0002
      9 C         140.9281  139.4963  165.9739 C.ar    1  UNL1        0.0025
     10 C         143.3482  142.4536  166.0465 C.3     1  UNL1        0.0111
     11 C         142.7826  141.2569  166.7524 C.3     1  UNL1        0.0632
     12 C         142.6866  141.2452  168.2492 C.ar    1  UNL1        0.0698
     13 C         142.3193  142.4112  169.1183 C.ar    1  UNL1        0.0519
     14 S         142.3467  141.9520  170.5460 S.2     1  UNL1       -0.0643
     15 C         142.7308  140.5022  170.5593 C.ar    1  UNL1        0.1341
     16 N         142.9409  140.0653  169.1398 N.ar    1  UNL1       -0.2403
     17 C         144.5952  139.4793  164.7019 C.3     1  UNL1        0.0499
     18 C         144.9845  140.3992  163.5829 C.3     1  UNL1        0.0774
     19 N         144.0769  140.5680  162.4006 N.3     1  UNL1       -0.2700
     20 C         143.1541  141.7483  162.3260 C.3     1  UNL1        0.0897
     21 C         144.0921  139.5566  161.2930 C.3     1  UNL1        0.0897
@<TRIPOS>BOND
     1    11    10    1
     2    11    12    1
     3    12    13   ar
     4    13    14   ar
     5    14    15   ar
     6    15    16   ar
     7    11     1    1
     8     1     2   ar
     9     2    17    1
    10    17    18    1
    11    18    19    1
    12    19    20    1
    13    19    21    1
    14     2     3   ar
    15     3     4   ar
    16     4     5   ar
    17     5     6   ar
    18     6     7   ar
    19     7     8   ar
    20     8     9   ar
    21    16    12   ar
    22     9     1   ar
    23     9     4   ar
@<TRIPOS>MOLECULE
*****
 21 23 0 0 0
SMALL
GASTEIGER

@<TRIPOS>ATOM
      1 C         140.4923  142.0074  165.4125 C.ar    1  UNL1       -0.0144
      2 C         139.4103  142.7174  164.6542 C.ar    1  UNL1        0.0051
      3 S         140.0262  143.8986  163.9646 S.2     1  UNL1       -0.0915
      4 C         141.4888  143.9185  164.2968 C.ar    1  UNL1        0.0288
      5 C         142.5956  144.8500  163.9000 C.ar    1  UNL1        0.0065
      6 C         143.9904  144.6126  164.3982 C.ar    1  UNL1        0.0005
      7 C         144.2784  143.4437  165.2930 C.ar    1  UNL1        0.0000
      8 C         143.1717  142.5122  165.6898 C.ar    1  UNL1        0.0002
      9 C         141.7769  142.7496  165.1917 C.ar    1  UNL1        0.0025
     10 C         140.4342  139.4174  165.6109 C.3     1  UNL1        0.0111
     11 C         140.3199  140.7719  166.2455 C.3     1  UNL1        0.0632
     12 C         140.0333  140.8906  167.7130 C.ar    1  UNL1        0.0698
     13 C         140.4143  142.0422  168.5955 C.ar    1  UNL1        0.0519
     14 S         139.9318  141.7419  169.9836 S.2     1  UNL1       -0.0643
     15 C         139.2525  140.4048  169.9591 C.ar    1  UNL1        0.1341
     16 N         139.3152  139.8786  168.5558 N.ar    1  UNL1       -0.2403
     17 C         137.9660  142.3167  164.5956 C.3     1  UNL1        0.0499
     18 C         137.3247  142.0135  163.2740 C.3     1  UNL1        0.0774
     19 N         137.9952  141.0778  162.3122 N.3     1  UNL1       -0.2700
     20 C         138.5439  141.5998  161.0173 C.3     1  UNL1        0.0897
     21 C         138.1169  139.6204  162.6451 C.3     1  UNL1        0.0897
@<TRIPOS>BOND
     1    11    10    1
     2    11    12    1
     3    12    13   ar
     4    13    14   ar
     5    14    15   ar
     6    15    16   ar
     7    11     1    1
     8     1     2   ar
     9     2    17    1
    10    17    18    1
    11    18    19    1
    12    19    20    1
    13    19    21    1
    14     2     3   ar
    15     3     4   ar
    16     4     5   ar
    17     5     6   ar
    18     6     7   ar
    19     7     8   ar
    20     8     9   ar
    21    16    12   ar
    22     9     1   ar
    23     9     4   ar
@<TRIPOS>MOLECULE
*****
 21 23 0 0 0
SMALL
GASTEIGER

@<TRIPOS>ATOM
      1 C         140.2890  139.8054  166.3204 C.ar    1  UNL1       -0.0144
      2 C         141.4508  138.9660  165.8779 C.ar    1  UNL1        0.0051
      3 S         142.6773  139.4630  166.5841 S.2     1  UNL1       -0.0915
      4 C         142.2736  140.6095  167.4631 C.ar    1  UNL1        0.0288
      5 C         143.0593  141.4882  168.3907 C.ar    1  UNL1        0.0065
      6 C         142.3690  142.5784  169.1554 C.ar    1  UNL1        0.0005
      7 C         140.8929  142.7900  168.9924 C.ar    1  UNL1        0.0000
      8 C         140.1072  141.9114  168.0648 C.ar    1  UNL1        0.0002
      9 C         140.7975  140.8212  167.3001 C.ar    1  UNL1        0.0025
     10 C         137.9391  138.7314  166.5936 C.3     1  UNL1        0.0111
     11 C         138.8682  139.6554  165.8635 C.3     1  UNL1        0.0632
     12 C         138.3764  140.4294  164.6765 C.ar    1  UNL1        0.0698
     13 C         138.1764  139.8879  163.2921 C.ar    1  UNL1        0.0519
     14 S         137.6746  141.0047  162.4255 S.2     1  UNL1       -0.0643
     15 C         137.5645  142.2364  163.2743 C.ar    1  UNL1        0.1341
     16 N         137.9982  141.8809  164.6656 N.ar    1  UNL1       -0.2403
     17 C         141.3957  137.8293  164.9008 C.3     1  UNL1        0.0499
     18 C         141.4342  138.1047  163.4269 C.3     1  UNL1        0.0774
     19 N         142.3497  139.1623  162.8852 N.3     1  UNL1       -0.2700
     20 C         143.8190  138.8886  162.7573 C.3     1  UNL1        0.0897
     21 C         141.7959  140.4934  162.4714 C.3     1  UNL1        0.0897
@<TRIPOS>BOND
     1    11    10    1
     2    11    12    1
     3    12    13   ar
     4    13    14   ar
     5    14    15   ar
     6    15    16   ar
     7    11     1    1
     8     1     2   ar
     9     2    17    1
    10    17    18    1
    11    18    19    1
    12    19    20    1
    13    19    21    1
    14     2     3   ar
    15     3     4   ar
    16     4     5   ar
    17     5     6   ar
    18     6     7   ar
    19     7     8   ar
    20     8     9   ar
    21    16    12   ar
    22     9     1   ar
    23     9     4   ar
