@<TRIPOS>MOLECULE
*****
 30 34 0 0 0
SMALL
GASTEIGER

@<TRIPOS>ATOM
      1 C         142.2477  141.8217  167.1416 C.2     1  UNL1        0.0866
      2 N         143.3779  142.8055  167.0718 N.2     1  UNL1       -0.1523
      3 N         144.1164  142.5727  165.7870 N.2     1  UNL1       -0.1523
      4 C         143.4425  141.4450  165.0629 C.2     1  UNL1        0.0858
      5 C         142.2877  140.9809  165.9000 C.3     1  UNL1        0.0883
      6 C         141.6139  139.8532  165.1759 C.3     1  UNL1        0.0384
      7 C         142.3523  139.6204  163.8911 C.ar    1  UNL1       -0.0205
      8 C         142.1417  138.6398  162.7759 C.ar    1  UNL1       -0.0071
      9 C         143.0611  138.6429  161.5908 C.ar    1  UNL1       -0.0065
     10 C         144.1913  139.6266  161.5209 C.ar    1  UNL1       -0.0029
     11 C         144.4020  140.6073  162.6362 C.ar    1  UNL1        0.0006
     12 C         143.4825  140.6042  163.8213 C.ar    1  UNL1        0.0117
     13 C         139.4410  140.8933  169.6568 C.ar    1  UNL1        0.0710
     14 C         140.2149  140.6260  168.3999 C.ar    1  UNL1        0.0165
     15 C         141.2523  141.7000  168.2571 C.ar    1  UNL1        0.0233
     16 C         141.1196  142.6311  169.4257 C.ar    1  UNL1        0.0373
     17 S         140.0001  142.1325  170.2908 S.2     1  UNL1       -0.0780
     18 C         137.1733  139.2398  170.7164 C.1     1  UNL1       -0.0534
     19 C         138.3071  140.0665  170.1866 C.1     1  UNL1       -0.0554
     20 C         136.0393  138.4130  171.2462 C.3     1  UNL1        0.2182
     21 C         136.4927  136.6004  173.0514 C.3     1  UNL1        0.1755
     22 O         136.2670  136.9776  171.6173 O.3     1  UNL1       -0.3374
     23 C         142.8505  137.6621  160.4755 C.3     1  UNL1        0.0992
     24 N         142.3129  138.1311  159.1560 N.3     1  UNL1       -0.2665
     25 C         141.3754  139.3009  159.1011 C.3     1  UNL1        0.0899
     26 C         140.8378  139.7698  157.7816 C.3     1  UNL1        0.0897
     27 N         141.2377  139.0691  156.5170 N.3     1  UNL1       -0.2691
     28 C         140.7001  139.5380  155.1975 C.3     1  UNL1        0.0897
     29 C         142.1751  137.8994  156.5719 C.3     1  UNL1        0.0897
     30 C         142.7127  137.4304  157.8914 C.3     1  UNL1        0.0899
@<TRIPOS>BOND
     1    21    22    1
     2    22    20    1
     3    20    18    1
     4    18    19    3
     5    19    13    1
     6    13    14   ar
     7    14    15   ar
     8    15     1    1
     9     1     2    2
    10     2     3    1
    11     3     4    2
    12     4     5    1
    13     5     6    1
    14     6     7    1
    15     7     8   ar
    16     8     9   ar
    17     9    23    1
    18    23    24    1
    19    24    25    1
    20    25    26    1
    21    26    27    1
    22    27    28    1
    23    27    29    1
    24    29    30    1
    25     9    10   ar
    26    10    11   ar
    27    11    12   ar
    28    15    16   ar
    29    16    17   ar
    30    17    13   ar
    31     5     1    1
    32    12     7   ar
    33    12     4    1
    34    30    24    1
@<TRIPOS>MOLECULE
*****
 30 34 0 0 0
SMALL
GASTEIGER

@<TRIPOS>ATOM
      1 C         139.6408  139.6606  167.5734 C.2     1  UNL1        0.0866
      2 N         138.2194  139.2098  167.7358 N.2     1  UNL1       -0.1523
      3 N         137.7375  138.7082  166.4068 N.2     1  UNL1       -0.1523
      4 C         138.8611  138.8490  165.4230 C.2     1  UNL1        0.0858
      5 C         140.0374  139.4376  166.1441 C.3     1  UNL1        0.0883
      6 C         141.1610  139.5784  165.1604 C.3     1  UNL1        0.0384
      7 C         140.6792  139.0767  163.8314 C.ar    1  UNL1       -0.0205
      8 C         141.3511  138.9722  162.4944 C.ar    1  UNL1       -0.0071
      9 C         140.6015  138.4169  161.3197 C.ar    1  UNL1       -0.0065
     10 C         139.1801  137.9661  161.4821 C.ar    1  UNL1       -0.0029
     11 C         138.5082  138.0706  162.8191 C.ar    1  UNL1        0.0006
     12 C         139.2577  138.6259  163.9937 C.ar    1  UNL1        0.0117
     13 C         142.3038  141.4127  169.7880 C.ar    1  UNL1        0.0710
     14 C         141.7527  141.0510  168.4406 C.ar    1  UNL1        0.0165
     15 C         140.5126  140.2338  168.6511 C.ar    1  UNL1        0.0233
     16 C         140.2972  140.0904  170.1287 C.ar    1  UNL1        0.0373
     17 S         141.4043  140.8190  170.8313 S.2     1  UNL1       -0.0780
     18 C         144.7717  143.0379  170.3053 C.1     1  UNL1       -0.0534
     19 C         143.5377  142.2253  170.0466 C.1     1  UNL1       -0.0554
     20 C         146.0057  143.8505  170.5640 C.3     1  UNL1        0.2182
     21 C         147.0888  145.7385  171.9826 C.3     1  UNL1        0.1755
     22 O         145.8999  145.1731  171.2636 O.3     1  UNL1       -0.3374
     23 C         141.2734  138.3124  159.9827 C.3     1  UNL1        0.0992
     24 N         141.8691  139.5325  159.3452 N.3     1  UNL1       -0.2665
     25 C         143.3582  139.6607  159.2172 C.3     1  UNL1        0.0899
     26 C         143.9539  140.8808  158.5797 C.3     1  UNL1        0.0897
     27 N         143.0605  141.9729  158.0703 N.3     1  UNL1       -0.2691
     28 C         143.6562  143.1930  157.4329 C.3     1  UNL1        0.0897
     29 C         141.5715  141.8447  158.1984 C.3     1  UNL1        0.0897
     30 C         140.9758  140.6245  158.8359 C.3     1  UNL1        0.0899
@<TRIPOS>BOND
     1    21    22    1
     2    22    20    1
     3    20    18    1
     4    18    19    3
     5    19    13    1
     6    13    14   ar
     7    14    15   ar
     8    15     1    1
     9     1     2    2
    10     2     3    1
    11     3     4    2
    12     4     5    1
    13     5     6    1
    14     6     7    1
    15     7     8   ar
    16     8     9   ar
    17     9    23    1
    18    23    24    1
    19    24    25    1
    20    25    26    1
    21    26    27    1
    22    27    28    1
    23    27    29    1
    24    29    30    1
    25     9    10   ar
    26    10    11   ar
    27    11    12   ar
    28    15    16   ar
    29    16    17   ar
    30    17    13   ar
    31     5     1    1
    32    12     7   ar
    33    12     4    1
    34    30    24    1
@<TRIPOS>MOLECULE
*****
 30 34 0 0 0
SMALL
GASTEIGER

@<TRIPOS>ATOM
      1 C         141.2950  141.9596  167.2091 C.2     1  UNL1        0.0866
      2 N         140.0608  142.8053  167.1030 N.2     1  UNL1       -0.1523
      3 N         140.0020  143.3676  165.7136 N.2     1  UNL1       -0.1523
      4 C         141.2001  142.8693  164.9609 C.2     1  UNL1        0.0858
      5 C         141.9992  141.9991  165.8852 C.3     1  UNL1        0.0883
      6 C         143.1972  141.5008  165.1325 C.3     1  UNL1        0.0384
      7 C         143.1386  142.0631  163.7431 C.ar    1  UNL1       -0.0205
      8 C         144.0496  141.9142  162.5608 C.ar    1  UNL1       -0.0071
      9 C         143.7263  142.6110  161.2725 C.ar    1  UNL1       -0.0065
     10 C         142.4921  143.4568  161.1664 C.ar    1  UNL1       -0.0029
     11 C         141.5810  143.6057  162.3487 C.ar    1  UNL1        0.0006
     12 C         141.9043  142.9088  163.6370 C.ar    1  UNL1        0.0117
     13 C         142.6374  139.4675  169.8648 C.ar    1  UNL1        0.0710
     14 C         142.3305  139.8251  168.4408 C.ar    1  UNL1        0.0165
     15 C         141.7460  141.2065  168.4254 C.ar    1  UNL1        0.0233
     16 C         141.6916  141.7026  169.8400 C.ar    1  UNL1        0.0373
     17 S         142.2426  140.6278  170.7296 S.2     1  UNL1       -0.0780
     18 C         143.8312  136.8851  170.8163 C.1     1  UNL1       -0.0534
     19 C         143.2343  138.1763  170.3406 C.1     1  UNL1       -0.0554
     20 C         144.4282  135.5938  171.2920 C.3     1  UNL1        0.2182
     21 C         146.7061  136.5568  172.0882 C.3     1  UNL1        0.1755
     22 O         145.9157  135.4625  171.4341 O.3     1  UNL1       -0.3374
     23 C         144.6374  142.4621  160.0901 C.3     1  UNL1        0.0992
     24 N         144.3373  141.4375  159.0365 N.3     1  UNL1       -0.2665
     25 C         144.9318  141.5747  157.6661 C.3     1  UNL1        0.0899
     26 C         144.6317  140.5502  156.6124 C.3     1  UNL1        0.0897
     27 N         143.7372  139.3884  156.9291 N.3     1  UNL1       -0.2691
     28 C         143.4372  138.3638  155.8755 C.3     1  UNL1        0.0897
     29 C         143.1428  139.2512  158.2995 C.3     1  UNL1        0.0897
     30 C         143.4429  140.2758  159.3531 C.3     1  UNL1        0.0899
@<TRIPOS>BOND
     1    21    22    1
     2    22    20    1
     3    20    18    1
     4    18    19    3
     5    19    13    1
     6    13    14   ar
     7    14    15   ar
     8    15     1    1
     9     1     2    2
    10     2     3    1
    11     3     4    2
    12     4     5    1
    13     5     6    1
    14     6     7    1
    15     7     8   ar
    16     8     9   ar
    17     9    23    1
    18    23    24    1
    19    24    25    1
    20    25    26    1
    21    26    27    1
    22    27    28    1
    23    27    29    1
    24    29    30    1
    25     9    10   ar
    26    10    11   ar
    27    11    12   ar
    28    15    16   ar
    29    16    17   ar
    30    17    13   ar
    31     5     1    1
    32    12     7   ar
    33    12     4    1
    34    30    24    1
@<TRIPOS>MOLECULE
*****
 30 34 0 0 0
SMALL
GASTEIGER

@<TRIPOS>ATOM
      1 C         139.1368  140.7250  162.5306 C.2     1  UNL1        0.0866
      2 N         137.7824  140.9998  161.9473 N.2     1  UNL1       -0.1523
      3 N         137.7441  140.4125  160.5675 N.2     1  UNL1       -0.1523
      4 C         139.0748  139.7747  160.2982 C.2     1  UNL1        0.0858
      5 C         139.9355  139.9679  161.5114 C.3     1  UNL1        0.0883
      6 C         141.2661  139.3301  161.2420 C.3     1  UNL1        0.0384
      7 C         141.2279  138.7428  159.8623 C.ar    1  UNL1       -0.0205
      8 C         142.2513  137.9933  159.0618 C.ar    1  UNL1       -0.0071
      9 C         141.9204  137.5186  157.6779 C.ar    1  UNL1       -0.0065
     10 C         140.5660  137.7934  157.0946 C.ar    1  UNL1       -0.0029
     11 C         139.5426  138.5429  157.8951 C.ar    1  UNL1        0.0006
     12 C         139.8736  139.0176  159.2790 C.ar    1  UNL1        0.0117
     13 C         139.9893  141.1732  166.2906 C.ar    1  UNL1        0.0710
     14 C         139.3250  140.4161  165.1791 C.ar    1  UNL1        0.0165
     15 C         139.6094  141.1353  163.8938 C.ar    1  UNL1        0.0233
     16 C         140.4494  142.3369  164.2110 C.ar    1  UNL1        0.0373
     17 S         140.6842  142.3603  165.6924 S.2     1  UNL1       -0.0780
     18 C         139.9371  140.4415  169.1995 C.1     1  UNL1       -0.0534
     19 C         139.9632  140.8073  167.7451 C.1     1  UNL1       -0.0554
     20 C         139.9111  140.0758  170.6540 C.3     1  UNL1        0.2182
     21 C         141.6938  141.8824  171.2092 C.3     1  UNL1        0.1755
     22 O         140.6171  140.9389  171.6573 O.3     1  UNL1       -0.3374
     23 C         142.9438  136.7690  156.8773 C.3     1  UNL1        0.0992
     24 N         142.7576  135.3060  156.6038 N.3     1  UNL1       -0.2665
     25 C         141.8065  134.8581  155.5337 C.3     1  UNL1        0.0899
     26 C         141.6203  133.3951  155.2602 C.3     1  UNL1        0.0897
     27 N         142.3851  132.3799  156.0568 N.3     1  UNL1       -0.2691
     28 C         142.1989  130.9168  155.7833 C.3     1  UNL1        0.0897
     29 C         143.3361  132.8277  157.1268 C.3     1  UNL1        0.0897
     30 C         143.5223  134.2908  157.4004 C.3     1  UNL1        0.0899
@<TRIPOS>BOND
     1    21    22    1
     2    22    20    1
     3    20    18    1
     4    18    19    3
     5    19    13    1
     6    13    14   ar
     7    14    15   ar
     8    15     1    1
     9     1     2    2
    10     2     3    1
    11     3     4    2
    12     4     5    1
    13     5     6    1
    14     6     7    1
    15     7     8   ar
    16     8     9   ar
    17     9    23    1
    18    23    24    1
    19    24    25    1
    20    25    26    1
    21    26    27    1
    22    27    28    1
    23    27    29    1
    24    29    30    1
    25     9    10   ar
    26    10    11   ar
    27    11    12   ar
    28    15    16   ar
    29    16    17   ar
    30    17    13   ar
    31     5     1    1
    32    12     7   ar
    33    12     4    1
    34    30    24    1
@<TRIPOS>MOLECULE
*****
 30 34 0 0 0
SMALL
GASTEIGER

@<TRIPOS>ATOM
      1 C         138.4573  140.1928  159.1972 C.2     1  UNL1        0.0866
      2 N         137.5503  140.6143  158.0793 N.2     1  UNL1       -0.1523
      3 N         138.0590  139.9954  156.8111 N.2     1  UNL1       -0.1523
      4 C         139.2805  139.1913  157.1453 C.2     1  UNL1        0.0858
      5 C         139.5266  139.3133  158.6200 C.3     1  UNL1        0.0883
      6 C         140.7479  138.5092  158.9541 C.3     1  UNL1        0.0384
      7 C         141.2567  137.8903  157.6860 C.ar    1  UNL1       -0.0205
      8 C         142.4286  136.9973  157.4048 C.ar    1  UNL1       -0.0071
      9 C         142.6936  136.5259  156.0057 C.ar    1  UNL1       -0.0065
     10 C         141.7866  136.9474  154.8878 C.ar    1  UNL1       -0.0029
     11 C         140.6147  137.8404  155.1690 C.ar    1  UNL1        0.0006
     12 C         140.3497  138.3118  156.5681 C.ar    1  UNL1        0.0117
     13 C         138.1515  140.4601  163.0573 C.ar    1  UNL1        0.0710
     14 C         138.3104  139.6436  161.8091 C.ar    1  UNL1        0.0165
     15 C         138.3192  140.5823  160.6391 C.ar    1  UNL1        0.0233
     16 C         138.1657  141.9790  161.1643 C.ar    1  UNL1        0.0373
     17 S         138.0621  141.9035  162.6588 S.2     1  UNL1       -0.0780
     18 C         138.0332  139.3936  165.8587 C.1     1  UNL1       -0.0534
     19 C         138.0924  139.9269  164.4581 C.1     1  UNL1       -0.0554
     20 C         137.9740  138.8603  167.2595 C.3     1  UNL1        0.2182
     21 C         140.0035  140.3192  167.9688 C.3     1  UNL1        0.1755
     22 O         138.8129  139.4836  168.3355 O.3     1  UNL1       -0.3374
     23 C         143.8656  135.6329  155.7245 C.3     1  UNL1        0.0992
     24 N         143.7386  134.1493  155.9060 N.3     1  UNL1       -0.2665
     25 C         144.2373  133.5022  157.1641 C.3     1  UNL1        0.0899
     26 C         144.1103  132.0187  157.3456 C.3     1  UNL1        0.0897
     27 N         143.4847  131.1822  156.2690 N.3     1  UNL1       -0.2691
     28 C         143.3577  129.6986  156.4505 C.3     1  UNL1        0.0897
     29 C         142.9861  131.8293  155.0110 C.3     1  UNL1        0.0897
     30 C         143.1131  133.3128  154.8295 C.3     1  UNL1        0.0899
@<TRIPOS>BOND
     1    21    22    1
     2    22    20    1
     3    20    18    1
     4    18    19    3
     5    19    13    1
     6    13    14   ar
     7    14    15   ar
     8    15     1    1
     9     1     2    2
    10     2     3    1
    11     3     4    2
    12     4     5    1
    13     5     6    1
    14     6     7    1
    15     7     8   ar
    16     8     9   ar
    17     9    23    1
    18    23    24    1
    19    24    25    1
    20    25    26    1
    21    26    27    1
    22    27    28    1
    23    27    29    1
    24    29    30    1
    25     9    10   ar
    26    10    11   ar
    27    11    12   ar
    28    15    16   ar
    29    16    17   ar
    30    17    13   ar
    31     5     1    1
    32    12     7   ar
    33    12     4    1
    34    30    24    1
@<TRIPOS>MOLECULE
*****
 30 34 0 0 0
SMALL
GASTEIGER

@<TRIPOS>ATOM
      1 C         141.9752  142.3851  167.4439 C.2     1  UNL1        0.0866
      2 N         143.4739  142.4388  167.4772 N.2     1  UNL1       -0.1523
      3 N         143.9532  142.8546  166.1180 N.2     1  UNL1       -0.1523
      4 C         142.7506  143.0578  165.2446 C.2     1  UNL1        0.0858
      5 C         141.5282  142.7676  166.0641 C.3     1  UNL1        0.0883
      6 C         140.3258  142.9708  165.1907 C.3     1  UNL1        0.0384
      7 C         140.8050  143.3866  163.8315 C.ar    1  UNL1       -0.0205
      8 C         140.0703  143.7232  162.5678 C.ar    1  UNL1       -0.0071
      9 C         140.8344  144.1136  161.3375 C.ar    1  UNL1       -0.0065
     10 C         142.3330  144.1674  161.3708 C.ar    1  UNL1       -0.0029
     11 C         143.0677  143.8308  162.6345 C.ar    1  UNL1        0.0006
     12 C         142.3037  143.4404  163.8648 C.ar    1  UNL1        0.0117
     13 C         139.3529  140.9435  169.9159 C.ar    1  UNL1        0.0710
     14 C         139.9867  140.9879  168.5571 C.ar    1  UNL1        0.0165
     15 C         141.0806  142.0139  168.5893 C.ar    1  UNL1        0.0233
     16 C         141.1227  142.6035  169.9679 C.ar    1  UNL1        0.0373
     17 S         140.0549  141.9420  170.7878 S.2     1  UNL1       -0.0780
     18 C         137.0801  139.1693  170.7441 C.1     1  UNL1       -0.0534
     19 C         138.2164  140.0564  170.3300 C.1     1  UNL1       -0.0554
     20 C         135.9436  138.2822  171.1583 C.3     1  UNL1        0.2182
     21 C         135.9477  136.5637  173.1069 C.3     1  UNL1        0.1755
     22 O         135.7320  137.9619  172.6084 O.3     1  UNL1       -0.3374
     23 C         140.0997  144.4502  160.0737 C.3     1  UNL1        0.0992
     24 N         140.8009  144.3566  158.7510 N.3     1  UNL1       -0.2665
     25 C         141.3041  145.5999  158.0792 C.3     1  UNL1        0.0899
     26 C         142.0053  145.5063  156.7565 C.3     1  UNL1        0.0897
     27 N         142.2033  144.1694  156.1055 N.3     1  UNL1       -0.2691
     28 C         142.9044  144.0758  154.7828 C.3     1  UNL1        0.0897
     29 C         141.7001  142.9262  156.7773 C.3     1  UNL1        0.0897
     30 C         140.9989  143.0198  158.1000 C.3     1  UNL1        0.0899
@<TRIPOS>BOND
     1    21    22    1
     2    22    20    1
     3    20    18    1
     4    18    19    3
     5    19    13    1
     6    13    14   ar
     7    14    15   ar
     8    15     1    1
     9     1     2    2
    10     2     3    1
    11     3     4    2
    12     4     5    1
    13     5     6    1
    14     6     7    1
    15     7     8   ar
    16     8     9   ar
    17     9    23    1
    18    23    24    1
    19    24    25    1
    20    25    26    1
    21    26    27    1
    22    27    28    1
    23    27    29    1
    24    29    30    1
    25     9    10   ar
    26    10    11   ar
    27    11    12   ar
    28    15    16   ar
    29    16    17   ar
    30    17    13   ar
    31     5     1    1
    32    12     7   ar
    33    12     4    1
    34    30    24    1
@<TRIPOS>MOLECULE
*****
 30 34 0 0 0
SMALL
GASTEIGER

@<TRIPOS>ATOM
      1 C         138.7285  140.8240  158.4680 C.2     1  UNL1        0.0866
      2 N         138.5311  142.3036  158.3202 N.2     1  UNL1       -0.1523
      3 N         138.3323  142.8838  159.6892 N.2     1  UNL1       -0.1523
      4 C         138.4068  141.7627  160.6830 C.2     1  UNL1        0.0858
      5 C         138.6517  140.4897  159.9283 C.3     1  UNL1        0.0883
      6 C         138.7263  139.3687  160.9222 C.3     1  UNL1        0.0384
      7 C         138.5275  139.9488  162.2911 C.ar    1  UNL1       -0.0205
      8 C         138.5007  139.3210  163.6531 C.ar    1  UNL1       -0.0071
      9 C         138.2765  140.1727  164.8672 C.ar    1  UNL1       -0.0065
     10 C         138.0791  141.6523  164.7194 C.ar    1  UNL1       -0.0029
     11 C         138.1058  142.2801  163.3575 C.ar    1  UNL1        0.0006
     12 C         138.3300  141.4284  162.1433 C.ar    1  UNL1        0.0117
     13 C         139.7279  137.9206  156.0939 C.ar    1  UNL1        0.0710
     14 C         139.7577  138.5814  157.4401 C.ar    1  UNL1        0.0165
     15 C         138.9618  139.8497  157.3516 C.ar    1  UNL1        0.0233
     16 C         138.4401  139.9729  155.9506 C.ar    1  UNL1        0.0373
     17 S         138.9136  138.7805  155.1733 S.2     1  UNL1       -0.0780
     18 C         141.0626  135.3334  155.3697 C.1     1  UNL1       -0.0534
     19 C         140.3952  136.6269  155.7318 C.1     1  UNL1       -0.0554
     20 C         141.7300  134.0397  155.0077 C.3     1  UNL1        0.2182
     21 C         142.9943  132.8011  156.9096 C.3     1  UNL1        0.1755
     22 O         141.8006  132.9259  156.0099 O.3     1  UNL1       -0.3374
     23 C         138.2498  139.5448  166.2293 C.3     1  UNL1        0.0992
     24 N         139.4051  139.7368  167.1665 N.3     1  UNL1       -0.2665
     25 C         139.1551  139.9777  168.6258 C.3     1  UNL1        0.0899
     26 C         140.3104  140.1697  169.5630 C.3     1  UNL1        0.0897
     27 N         141.7158  140.1209  169.0408 N.3     1  UNL1       -0.2691
     28 C         142.8712  140.3129  169.9780 C.3     1  UNL1        0.0897
     29 C         141.9658  139.8801  167.5816 C.3     1  UNL1        0.0897
     30 C         140.8104  139.6880  166.6444 C.3     1  UNL1        0.0899
@<TRIPOS>BOND
     1    21    22    1
     2    22    20    1
     3    20    18    1
     4    18    19    3
     5    19    13    1
     6    13    14   ar
     7    14    15   ar
     8    15     1    1
     9     1     2    2
    10     2     3    1
    11     3     4    2
    12     4     5    1
    13     5     6    1
    14     6     7    1
    15     7     8   ar
    16     8     9   ar
    17     9    23    1
    18    23    24    1
    19    24    25    1
    20    25    26    1
    21    26    27    1
    22    27    28    1
    23    27    29    1
    24    29    30    1
    25     9    10   ar
    26    10    11   ar
    27    11    12   ar
    28    15    16   ar
    29    16    17   ar
    30    17    13   ar
    31     5     1    1
    32    12     7   ar
    33    12     4    1
    34    30    24    1
@<TRIPOS>MOLECULE
*****
 30 34 0 0 0
SMALL
GASTEIGER

@<TRIPOS>ATOM
      1 C         138.5361  141.0735  163.4574 C.2     1  UNL1        0.0866
      2 N         137.6108  142.1931  163.0829 N.2     1  UNL1       -0.1523
      3 N         137.7752  142.4594  161.6159 N.2     1  UNL1       -0.1523
      4 C         138.8023  141.5043  161.0837 C.2     1  UNL1        0.0858
      5 C         139.2725  140.6478  162.2219 C.3     1  UNL1        0.0883
      6 C         140.2995  139.6929  161.6897 C.3     1  UNL1        0.0384
      7 C         140.4641  139.9591  160.2227 C.ar    1  UNL1       -0.0205
      8 C         141.3369  139.3268  159.1796 C.ar    1  UNL1       -0.0071
      9 C         141.2844  139.8140  157.7619 C.ar    1  UNL1       -0.0065
     10 C         140.3591  140.9336  157.3874 C.ar    1  UNL1       -0.0029
     11 C         139.4862  141.5659  158.4305 C.ar    1  UNL1        0.0006
     12 C         139.5387  141.0787  159.8482 C.ar    1  UNL1        0.0117
     13 C         139.3132  140.1890  167.1559 C.ar    1  UNL1        0.0710
     14 C         139.3884  141.1300  165.9903 C.ar    1  UNL1        0.0165
     15 C         138.6969  140.4832  164.8270 C.ar    1  UNL1        0.0233
     16 C         138.1943  139.1423  165.2736 C.ar    1  UNL1        0.0373
     17 S         138.5752  138.9605  166.7130 S.2     1  UNL1       -0.0780
     18 C         140.4408  140.6780  169.8925 C.1     1  UNL1       -0.0534
     19 C         139.8770  140.4335  168.5243 C.1     1  UNL1       -0.0554
     20 C         141.0045  140.9226  171.2609 C.3     1  UNL1        0.2182
     21 C         142.4336  142.9315  170.4411 C.3     1  UNL1        0.1755
     22 O         141.7439  142.1950  171.5511 O.3     1  UNL1       -0.3374
     23 C         142.1573  139.1817  156.7187 C.3     1  UNL1        0.0992
     24 N         141.9991  137.7267  156.3898 N.3     1  UNL1       -0.2665
     25 C         140.9018  137.2808  155.4694 C.3     1  UNL1        0.0899
     26 C         140.7436  135.8259  155.1406 C.3     1  UNL1        0.0897
     27 N         141.6828  134.8168  155.7322 N.3     1  UNL1       -0.2691
     28 C         141.5246  133.3619  155.4034 C.3     1  UNL1        0.0897
     29 C         142.7800  135.2628  156.6526 C.3     1  UNL1        0.0897
     30 C         142.9382  136.7177  156.9814 C.3     1  UNL1        0.0899
@<TRIPOS>BOND
     1    21    22    1
     2    22    20    1
     3    20    18    1
     4    18    19    3
     5    19    13    1
     6    13    14   ar
     7    14    15   ar
     8    15     1    1
     9     1     2    2
    10     2     3    1
    11     3     4    2
    12     4     5    1
    13     5     6    1
    14     6     7    1
    15     7     8   ar
    16     8     9   ar
    17     9    23    1
    18    23    24    1
    19    24    25    1
    20    25    26    1
    21    26    27    1
    22    27    28    1
    23    27    29    1
    24    29    30    1
    25     9    10   ar
    26    10    11   ar
    27    11    12   ar
    28    15    16   ar
    29    16    17   ar
    30    17    13   ar
    31     5     1    1
    32    12     7   ar
    33    12     4    1
    34    30    24    1
@<TRIPOS>MOLECULE
*****
 30 34 0 0 0
SMALL
GASTEIGER

@<TRIPOS>ATOM
      1 C         141.6225  141.1622  166.7447 C.2     1  UNL1        0.0866
      2 N         141.8262  142.6357  166.5514 N.2     1  UNL1       -0.1523
      3 N         141.5508  142.9569  165.1123 N.2     1  UNL1       -0.1523
      4 C         141.1768  141.6818  164.4162 C.2     1  UNL1        0.0858
      5 C         141.2212  140.5727  165.4251 C.3     1  UNL1        0.0883
      6 C         140.8472  139.2977  164.7290 C.3     1  UNL1        0.0384
      7 C         140.5718  139.6188  163.2899 C.ar    1  UNL1       -0.0205
      8 C         140.1618  138.7599  162.1306 C.ar    1  UNL1       -0.0071
      9 C         139.9555  139.3744  160.7779 C.ar    1  UNL1       -0.0065
     10 C         140.1592  140.8479  160.5846 C.ar    1  UNL1       -0.0029
     11 C         140.5692  141.7068  161.7439 C.ar    1  UNL1        0.0006
     12 C         140.7755  141.0923  163.0966 C.ar    1  UNL1        0.0117
     13 C         142.5600  138.8105  169.6869 C.ar    1  UNL1        0.0710
     14 C         142.7158  139.2522  168.2618 C.ar    1  UNL1        0.0165
     15 C         141.7907  140.4102  168.0317 C.ar    1  UNL1        0.0233
     16 C         141.0631  140.6844  169.3145 C.ar    1  UNL1        0.0373
     17 S         141.5386  139.6957  170.3375 S.2     1  UNL1       -0.0780
     18 C         144.0328  136.5534  171.0044 C.1     1  UNL1       -0.0534
     19 C         143.2964  137.6819  170.3456 C.1     1  UNL1       -0.0554
     20 C         144.7692  135.4248  171.6632 C.3     1  UNL1        0.2182
     21 C         146.7863  135.8162  173.2533 C.3     1  UNL1        0.1755
     22 O         146.2497  135.5226  171.8837 O.3     1  UNL1       -0.3374
     23 C         139.5455  138.5155  159.6185 C.3     1  UNL1        0.0992
     24 N         140.4227  138.4249  158.4051 N.3     1  UNL1       -0.2665
     25 C         139.8274  138.5749  157.0364 C.3     1  UNL1        0.0899
     26 C         140.7047  138.4843  155.8230 C.3     1  UNL1        0.0897
     27 N         142.1771  138.2436  155.9784 N.3     1  UNL1       -0.2691
     28 C         143.0543  138.1529  154.7650 C.3     1  UNL1        0.0897
     29 C         142.7723  138.0935  157.3470 C.3     1  UNL1        0.0897
     30 C         141.8950  138.1842  158.5604 C.3     1  UNL1        0.0899
@<TRIPOS>BOND
     1    21    22    1
     2    22    20    1
     3    20    18    1
     4    18    19    3
     5    19    13    1
     6    13    14   ar
     7    14    15   ar
     8    15     1    1
     9     1     2    2
    10     2     3    1
    11     3     4    2
    12     4     5    1
    13     5     6    1
    14     6     7    1
    15     7     8   ar
    16     8     9   ar
    17     9    23    1
    18    23    24    1
    19    24    25    1
    20    25    26    1
    21    26    27    1
    22    27    28    1
    23    27    29    1
    24    29    30    1
    25     9    10   ar
    26    10    11   ar
    27    11    12   ar
    28    15    16   ar
    29    16    17   ar
    30    17    13   ar
    31     5     1    1
    32    12     7   ar
    33    12     4    1
    34    30    24    1
