@<TRIPOS>MOLECULE
*****
 49 55 0 0 0
SMALL
GASTEIGER

@<TRIPOS>ATOM
      1 C         140.8482  141.1626  161.1479 C.3     1  UNL1        0.0236
      2 C         140.2504  140.0316  160.3646 C.3     1  UNL1        0.0257
      3 C         141.0245  139.4044  159.2432 C.3     1  UNL1        0.0940
      4 N         142.3962  139.9083  158.9051 N.am    1  UNL1       -0.2760
      5 C         143.1703  139.2811  157.7837 C.2     1  UNL1        0.2512
      6 O         144.5421  139.7849  157.4455 O.2     1  UNL1       -0.2698
      7 C         142.9940  141.0393  159.6884 C.3     1  UNL1        0.0940
      8 C         142.2200  141.6665  160.8097 C.3     1  UNL1        0.0257
      9 C         142.5724  138.1501  157.0005 C.ar    1  UNL1        0.0824
     10 C         142.9033  136.7318  157.3595 C.ar    1  UNL1        0.0249
     11 C         142.3055  135.6008  156.5762 C.ar    1  UNL1        0.0921
     12 C         141.3767  135.8882  155.4339 C.ar    1  UNL1        0.1568
     13 F         140.7789  134.7572  154.6507 F       1  UNL1       -0.2027
     14 C         141.0458  137.3065  155.0749 C.ar    1  UNL1        0.0607
     15 C         141.6437  138.4375  155.8582 C.ar    1  UNL1        0.1468
     16 F         141.3128  139.8558  155.4991 F       1  UNL1       -0.2039
     17 N         142.6363  134.1825  156.9353 N.pl3   1  UNL1       -0.2165
     18 H         142.5948  133.8900  157.8744 H       1  UNL1        0.1734
     19 S         143.0305  133.2100  155.8635 S.O2    1  UNL1        0.0559
     20 C         143.4247  132.2374  154.7917 C.3     1  UNL1        0.1996
     21 O         141.8820  132.3238  156.2452 O.2     1  UNL1       -0.1544
     22 O         144.1790  134.0960  155.4818 O.2     1  UNL1       -0.1544
     23 C         140.9862  142.2499  162.1722 C.ar    1  UNL1       -0.0204
     24 C         141.2728  141.9007  163.6025 C.ar    1  UNL1       -0.0041
     25 C         141.4108  142.9880  164.6268 C.ar    1  UNL1        0.0020
     26 C         141.2623  144.4242  164.2205 C.ar    1  UNL1        0.0296
     27 C         140.9758  144.7733  162.7901 C.ar    1  UNL1        0.1398
     28 F         140.8273  146.2096  162.3839 F       1  UNL1       -0.2042
     29 C         140.8377  143.6861  161.7659 C.ar    1  UNL1        0.0254
     30 C         139.5244  141.0364  161.8417 C.3     1  UNL1        0.0215
     31 C         138.2616  141.4055  161.1211 C.3     1  UNL1        0.0723
     32 C         138.2316  141.3443  160.9796 C.3     1  UNL1        0.0893
     33 C         138.7162  142.6421  160.4040 C.3     1  UNL1        0.0386
     34 C         138.7323  142.8437  158.9177 C.3     1  UNL1        0.0594
     35 C         138.5777  142.6084  157.4443 C.3     1  UNL1        0.0174
     36 C         138.0276  141.2263  157.2509 C.3     1  UNL1        0.0174
     37 C         137.8422  140.6075  158.6047 C.3     1  UNL1        0.0594
     38 C         137.7633  140.2484  160.0690 C.3     1  UNL1        0.0386
     39 N         138.2778  141.6071  159.6349 N.3     1  UNL1       -0.2751
     40 C         137.6310  143.5261  162.8704 C.3     1  UNL1        0.0718
     41 C         137.9211  142.1936  163.4951 C.ar    1  UNL1        0.1207
     42 N         138.0145  141.5552  164.8492 N.ar    1  UNL1       -0.2309
     43 C         138.3667  140.1098  164.6570 C.ar    1  UNL1        0.0983
     44 C         138.5904  138.9929  165.6329 C.ar    1  UNL1        0.0206
     45 C         138.9382  137.6211  165.1358 C.ar    1  UNL1        0.0016
     46 C         139.0624  137.3662  163.6629 C.ar    1  UNL1        0.0016
     47 C         138.8388  138.4831  162.6870 C.ar    1  UNL1        0.0188
     48 C         138.4909  139.8549  163.1840 C.ar    1  UNL1        0.0785
     49 N         138.2155  141.1428  162.4660 N.ar    1  UNL1       -0.3167
@<TRIPOS>BOND
     1    40    41    1
     2    41    42   ar
     3    42    43   ar
     4    43    44   ar
     5    44    45   ar
     6    45    46   ar
     7    46    47   ar
     8    47    48   ar
     9    48    49   ar
    10    49    32    1
    11    32    33    1
    12    33    34    1
    13    34    35    1
    14    35    36    1
    15    36    37    1
    16    37    38    1
    17    37    39    1
    18    39    31    1
    19    31    30    1
    20    30     1    1
    21     1    23    1
    22    23    24   ar
    23    24    25   ar
    24    25    26   ar
    25    26    27   ar
    26    27    28    1
    27    27    29   ar
    28     1     2    1
    29     2     3    1
    30     3     4    1
    31     4     5   am
    32     5     6    2
    33     5     9    1
    34     9    10   ar
    35    10    11   ar
    36    11    17    1
    37    17    19    1
    38    19    20    1
    39    19    21    2
    40    19    22    2
    41    11    12   ar
    42    12    13    1
    43    12    14   ar
    44    14    15   ar
    45    15    16    1
    46     4     7    1
    47     7     8    1
    48    49    41   ar
    49    38    32    1
    50     8     1    1
    51    48    43   ar
    52    39    34    1
    53    29    23   ar
    54    15     9   ar
    55    17    18    1
@<TRIPOS>MOLECULE
*****
 49 55 0 0 0
SMALL
GASTEIGER

@<TRIPOS>ATOM
      1 C         141.6983  141.8100  164.9285 C.3     1  UNL1        0.0236
      2 C         141.7555  140.8757  163.7564 C.3     1  UNL1        0.0257
      3 C         141.8644  141.4243  162.3646 C.3     1  UNL1        0.0940
      4 N         141.9160  142.9072  162.1448 N.am    1  UNL1       -0.2760
      5 C         142.0249  143.4557  160.7529 C.2     1  UNL1        0.2512
      6 O         142.0765  144.9386  160.5331 O.2     1  UNL1       -0.2698
      7 C         141.8589  143.8415  163.3169 C.3     1  UNL1        0.0940
      8 C         141.7500  143.2930  164.7087 C.3     1  UNL1        0.0257
      9 C         142.0820  142.5213  159.5809 C.ar    1  UNL1        0.0824
     10 C         143.3938  141.9311  159.1555 C.ar    1  UNL1        0.0249
     11 C         143.4508  140.9967  157.9835 C.ar    1  UNL1        0.0921
     12 C         142.1962  140.6526  157.2369 C.ar    1  UNL1        0.1568
     13 F         142.2534  139.7182  156.0648 F       1  UNL1       -0.2027
     14 C         140.8845  141.2428  157.6622 C.ar    1  UNL1        0.0607
     15 C         140.8274  142.1772  158.8343 C.ar    1  UNL1        0.1468
     16 F         139.5157  142.7675  159.2596 F       1  UNL1       -0.2039
     17 N         144.7626  140.4064  157.5581 N.pl3   1  UNL1       -0.2165
     18 H         145.2584  139.8161  158.1704 H       1  UNL1        0.1734
     19 S         145.3188  140.7156  156.1998 S.O2    1  UNL1        0.0559
     20 C         145.8751  141.0247  154.8415 C.3     1  UNL1        0.1996
     21 O         145.2964  142.1800  156.5239 O.2     1  UNL1       -0.1544
     22 O         145.3413  139.2512  155.8757 O.2     1  UNL1       -0.1544
     23 C         141.6129  142.2869  166.3482 C.ar    1  UNL1       -0.0204
     24 C         140.3445  142.9055  166.8565 C.ar    1  UNL1       -0.0041
     25 C         140.2591  143.3825  168.2761 C.ar    1  UNL1        0.0020
     26 C         141.4422  143.2407  169.1873 C.ar    1  UNL1        0.0296
     27 C         142.7106  142.6221  168.6790 C.ar    1  UNL1        0.1398
     28 F         143.8935  142.4804  169.5902 F       1  UNL1       -0.2042
     29 C         142.7959  142.1452  167.2593 C.ar    1  UNL1        0.0254
     30 C         141.6170  140.4928  165.6413 C.3     1  UNL1        0.0215
     31 C         140.3834  139.6483  165.5183 C.3     1  UNL1        0.0723
     32 C         140.3277  139.6122  165.3760 C.3     1  UNL1        0.0893
     33 C         139.3223  140.7068  165.5789 C.3     1  UNL1        0.0386
     34 C         138.3125  141.0052  164.5106 C.3     1  UNL1        0.0594
     35 C         137.5308  140.9516  163.2315 C.3     1  UNL1        0.0174
     36 C         138.1087  139.8600  162.3804 C.3     1  UNL1        0.0174
     37 C         139.2477  139.2389  163.1334 C.3     1  UNL1        0.0594
     38 C         140.3233  138.8161  164.1048 C.3     1  UNL1        0.0386
     39 N         139.3737  139.9467  164.4500 N.3     1  UNL1       -0.2751
     40 C         143.0043  138.5318  164.7724 C.3     1  UNL1        0.0718
     41 C         142.7163  138.7651  166.2259 C.ar    1  UNL1        0.1207
     42 N         143.3766  138.6240  167.5653 N.ar    1  UNL1       -0.2309
     43 C         142.4059  139.0856  168.6116 C.ar    1  UNL1        0.0983
     44 C         142.5068  139.1727  170.1057 C.ar    1  UNL1        0.0206
     45 C         141.3474  139.6862  170.9069 C.ar    1  UNL1        0.0016
     46 C         140.0871  140.1126  170.2141 C.ar    1  UNL1        0.0016
     47 C         139.9863  140.0255  168.7201 C.ar    1  UNL1        0.0188
     48 C         141.1457  139.5120  167.9189 C.ar    1  UNL1        0.0785
     49 N         141.3375  139.3139  166.4444 N.ar    1  UNL1       -0.3167
@<TRIPOS>BOND
     1    40    41    1
     2    41    42   ar
     3    42    43   ar
     4    43    44   ar
     5    44    45   ar
     6    45    46   ar
     7    46    47   ar
     8    47    48   ar
     9    48    49   ar
    10    49    32    1
    11    32    33    1
    12    33    34    1
    13    34    35    1
    14    35    36    1
    15    36    37    1
    16    37    38    1
    17    37    39    1
    18    39    31    1
    19    31    30    1
    20    30     1    1
    21     1    23    1
    22    23    24   ar
    23    24    25   ar
    24    25    26   ar
    25    26    27   ar
    26    27    28    1
    27    27    29   ar
    28     1     2    1
    29     2     3    1
    30     3     4    1
    31     4     5   am
    32     5     6    2
    33     5     9    1
    34     9    10   ar
    35    10    11   ar
    36    11    17    1
    37    17    19    1
    38    19    20    1
    39    19    21    2
    40    19    22    2
    41    11    12   ar
    42    12    13    1
    43    12    14   ar
    44    14    15   ar
    45    15    16    1
    46     4     7    1
    47     7     8    1
    48    49    41   ar
    49    38    32    1
    50     8     1    1
    51    48    43   ar
    52    39    34    1
    53    29    23   ar
    54    15     9   ar
    55    17    18    1
@<TRIPOS>MOLECULE
*****
 49 55 0 0 0
SMALL
GASTEIGER

@<TRIPOS>ATOM
      1 C         141.6620  141.7979  164.9293 C.3     1  UNL1        0.0236
      2 C         141.7036  140.8610  163.7586 C.3     1  UNL1        0.0257
      3 C         141.7860  141.4067  162.3638 C.3     1  UNL1        0.0940
      4 N         141.8267  142.8893  162.1397 N.am    1  UNL1       -0.2760
      5 C         141.9091  143.4350  160.7449 C.2     1  UNL1        0.2512
      6 O         141.9498  144.9176  160.5208 O.2     1  UNL1       -0.2698
      7 C         141.7850  143.8262  163.3104 C.3     1  UNL1        0.0940
      8 C         141.7027  143.2806  164.7051 C.3     1  UNL1        0.0257
      9 C         141.9508  142.4981  159.5743 C.ar    1  UNL1        0.0824
     10 C         140.6949  141.8223  159.1094 C.ar    1  UNL1        0.0249
     11 C         140.7367  140.8853  157.9387 C.ar    1  UNL1        0.0921
     12 C         142.0343  140.6242  157.2330 C.ar    1  UNL1        0.1568
     13 F         142.0760  139.6872  156.0624 F       1  UNL1       -0.2027
     14 C         143.2902  141.3000  157.6979 C.ar    1  UNL1        0.0607
     15 C         143.2484  142.2369  158.8686 C.ar    1  UNL1        0.1468
     16 F         144.5042  142.9127  159.3335 F       1  UNL1       -0.2039
     17 N         139.4809  140.2095  157.4738 N.pl3   1  UNL1       -0.2165
     18 H         139.4566  139.2303  157.3746 H       1  UNL1        0.1734
     19 S         138.2620  141.0256  157.1601 S.O2    1  UNL1        0.0559
     20 C         137.0432  141.8417  156.8464 C.3     1  UNL1        0.1996
     21 O         138.9986  141.6940  156.0373 O.2     1  UNL1       -0.1544
     22 O         137.5255  140.3573  158.2829 O.2     1  UNL1       -0.1544
     23 C         141.5985  142.2778  166.3491 C.ar    1  UNL1       -0.0204
     24 C         140.3367  142.8938  166.8769 C.ar    1  UNL1       -0.0041
     25 C         140.2733  143.3737  168.2966 C.ar    1  UNL1        0.0020
     26 C         141.4716  143.2377  169.1885 C.ar    1  UNL1        0.0296
     27 C         142.7334  142.6217  168.6607 C.ar    1  UNL1        0.1398
     28 F         143.9316  142.4857  169.5526 F       1  UNL1       -0.2042
     29 C         142.7968  142.1418  167.2409 C.ar    1  UNL1        0.0254
     30 C         141.5992  140.4820  165.6465 C.3     1  UNL1        0.0215
     31 C         140.3729  139.6252  165.5359 C.3     1  UNL1        0.0723
     32 C         140.3157  139.5866  165.3949 C.3     1  UNL1        0.0893
     33 C         139.3173  140.6898  165.5854 C.3     1  UNL1        0.0386
     34 C         138.2989  140.9717  164.5208 C.3     1  UNL1        0.0594
     35 C         137.5048  140.8965  163.2504 C.3     1  UNL1        0.0174
     36 C         138.0697  139.7855  162.4158 C.3     1  UNL1        0.0174
     37 C         139.2128  139.1740  163.1703 C.3     1  UNL1        0.0594
     38 C         140.2957  138.7655  164.1398 C.3     1  UNL1        0.0386
     39 N         139.3545  139.9072  164.4714 N.3     1  UNL1       -0.2751
     40 C         142.9970  138.5222  164.7837 C.3     1  UNL1        0.0718
     41 C         142.7159  138.7649  166.2370 C.ar    1  UNL1        0.1207
     42 N         143.3853  138.6397  167.5735 N.ar    1  UNL1       -0.2309
     43 C         142.4173  139.1021  168.6219 C.ar    1  UNL1        0.0983
     44 C         142.5265  139.2020  170.1146 C.ar    1  UNL1        0.0206
     45 C         141.3679  139.7129  170.9187 C.ar    1  UNL1        0.0016
     46 C         140.1002  140.1239  170.2302 C.ar    1  UNL1        0.0016
     47 C         139.9911  140.0240  168.7375 C.ar    1  UNL1        0.0188
     48 C         141.1496  139.5131  167.9334 C.ar    1  UNL1        0.0785
     49 N         141.3342  139.3047  166.4595 N.ar    1  UNL1       -0.3167
@<TRIPOS>BOND
     1    40    41    1
     2    41    42   ar
     3    42    43   ar
     4    43    44   ar
     5    44    45   ar
     6    45    46   ar
     7    46    47   ar
     8    47    48   ar
     9    48    49   ar
    10    49    32    1
    11    32    33    1
    12    33    34    1
    13    34    35    1
    14    35    36    1
    15    36    37    1
    16    37    38    1
    17    37    39    1
    18    39    31    1
    19    31    30    1
    20    30     1    1
    21     1    23    1
    22    23    24   ar
    23    24    25   ar
    24    25    26   ar
    25    26    27   ar
    26    27    28    1
    27    27    29   ar
    28     1     2    1
    29     2     3    1
    30     3     4    1
    31     4     5   am
    32     5     6    2
    33     5     9    1
    34     9    10   ar
    35    10    11   ar
    36    11    17    1
    37    17    19    1
    38    19    20    1
    39    19    21    2
    40    19    22    2
    41    11    12   ar
    42    12    13    1
    43    12    14   ar
    44    14    15   ar
    45    15    16    1
    46     4     7    1
    47     7     8    1
    48    49    41   ar
    49    38    32    1
    50     8     1    1
    51    48    43   ar
    52    39    34    1
    53    29    23   ar
    54    15     9   ar
    55    17    18    1
@<TRIPOS>MOLECULE
*****
 49 55 0 0 0
SMALL
GASTEIGER

@<TRIPOS>ATOM
      1 C         140.8664  141.7717  161.7375 C.3     1  UNL1        0.0236
      2 C         141.2610  142.2597  163.0999 C.3     1  UNL1        0.0257
      3 C         141.2483  141.3174  164.2669 C.3     1  UNL1        0.0940
      4 N         140.8410  139.8871  164.0716 N.am    1  UNL1       -0.2760
      5 C         140.8283  138.9448  165.2386 C.2     1  UNL1        0.2512
      6 O         140.4209  137.5145  165.0432 O.2     1  UNL1       -0.2698
      7 C         140.4463  139.3991  162.7092 C.3     1  UNL1        0.0940
      8 C         140.4590  140.3413  161.5422 C.3     1  UNL1        0.0257
      9 C         141.2230  139.4329  166.6009 C.ar    1  UNL1        0.0824
     10 C         140.2782  140.2854  167.3951 C.ar    1  UNL1        0.0249
     11 C         140.6729  140.7734  168.7574 C.ar    1  UNL1        0.0921
     12 C         142.0125  140.4091  169.3256 C.ar    1  UNL1        0.1568
     13 F         142.4072  140.8972  170.6879 F       1  UNL1       -0.2027
     14 C         142.9573  139.5566  168.5314 C.ar    1  UNL1        0.0607
     15 C         142.5625  139.0685  167.1691 C.ar    1  UNL1        0.1468
     16 F         143.5073  138.2161  166.3750 F       1  UNL1       -0.2039
     17 N         139.7281  141.6259  169.5515 N.pl3   1  UNL1       -0.2165
     18 H         138.8626  141.2596  169.8448 H       1  UNL1        0.1734
     19 S         140.1020  143.0364  169.8989 S.O2    1  UNL1        0.0559
     20 C         140.4759  144.4470  170.2462 C.3     1  UNL1        0.1996
     21 O         140.2811  143.3476  168.4425 O.2     1  UNL1       -0.1544
     22 O         139.9230  142.7253  171.3552 O.2     1  UNL1       -0.1544
     23 C         140.5784  141.7815  160.2654 C.ar    1  UNL1       -0.0204
     24 C         141.5493  141.1579  159.3071 C.ar    1  UNL1       -0.0041
     25 C         141.2614  141.1677  157.8350 C.ar    1  UNL1        0.0020
     26 C         140.0025  141.8012  157.3213 C.ar    1  UNL1        0.0296
     27 C         139.0315  142.4249  158.2796 C.ar    1  UNL1        0.1398
     28 F         137.7728  143.0584  157.7659 F       1  UNL1       -0.2042
     29 C         139.3196  142.4150  159.7517 C.ar    1  UNL1        0.0254
     30 C         141.1737  143.2054  161.4216 C.3     1  UNL1        0.0215
     31 C         142.5789  143.7160  161.5446 C.3     1  UNL1        0.0723
     32 C         142.6630  143.6960  161.6756 C.3     1  UNL1        0.0893
     33 C         143.2802  142.5056  161.0030 C.3     1  UNL1        0.0386
     34 C         144.3142  141.6906  161.7217 C.3     1  UNL1        0.0594
     35 C         145.2618  141.1947  162.7734 C.3     1  UNL1        0.0174
     36 C         145.1462  142.0986  163.9649 C.3     1  UNL1        0.0174
     37 C         144.1270  143.1531  163.6496 C.3     1  UNL1        0.0594
     38 C         143.0798  144.0712  163.0667 C.3     1  UNL1        0.0386
     39 N         143.6128  142.9009  162.2632 N.3     1  UNL1       -0.2751
     40 C         140.4162  144.9980  163.0729 C.3     1  UNL1        0.0718
     41 C         140.4583  145.2049  161.5878 C.ar    1  UNL1        0.1207
     42 N         139.6900  145.8980  160.5019 N.ar    1  UNL1       -0.2309
     43 C         140.3858  145.6325  159.1998 C.ar    1  UNL1        0.0983
     44 C         140.0829  146.0606  157.7945 C.ar    1  UNL1        0.0206
     45 C         140.9785  145.6315  156.6703 C.ar    1  UNL1        0.0016
     46 C         142.1769  144.7743  156.9515 C.ar    1  UNL1        0.0016
     47 C         142.4797  144.3462  158.3569 C.ar    1  UNL1        0.0188
     48 C         141.5842  144.7754  159.4810 C.ar    1  UNL1        0.0785
     49 N         141.6290  144.5111  160.9569 N.ar    1  UNL1       -0.3167
@<TRIPOS>BOND
     1    40    41    1
     2    41    42   ar
     3    42    43   ar
     4    43    44   ar
     5    44    45   ar
     6    45    46   ar
     7    46    47   ar
     8    47    48   ar
     9    48    49   ar
    10    49    32    1
    11    32    33    1
    12    33    34    1
    13    34    35    1
    14    35    36    1
    15    36    37    1
    16    37    38    1
    17    37    39    1
    18    39    31    1
    19    31    30    1
    20    30     1    1
    21     1    23    1
    22    23    24   ar
    23    24    25   ar
    24    25    26   ar
    25    26    27   ar
    26    27    28    1
    27    27    29   ar
    28     1     2    1
    29     2     3    1
    30     3     4    1
    31     4     5   am
    32     5     6    2
    33     5     9    1
    34     9    10   ar
    35    10    11   ar
    36    11    17    1
    37    17    19    1
    38    19    20    1
    39    19    21    2
    40    19    22    2
    41    11    12   ar
    42    12    13    1
    43    12    14   ar
    44    14    15   ar
    45    15    16    1
    46     4     7    1
    47     7     8    1
    48    49    41   ar
    49    38    32    1
    50     8     1    1
    51    48    43   ar
    52    39    34    1
    53    29    23   ar
    54    15     9   ar
    55    17    18    1
@<TRIPOS>MOLECULE
*****
 49 55 0 0 0
SMALL
GASTEIGER

@<TRIPOS>ATOM
      1 C         140.3879  142.2366  161.6345 C.3     1  UNL1        0.0236
      2 C         141.2599  141.6269  160.5772 C.3     1  UNL1        0.0257
      3 C         140.6392  140.9686  159.3807 C.3     1  UNL1        0.0940
      4 N         139.1465  140.9201  159.2416 N.am    1  UNL1       -0.2760
      5 C         138.5257  140.2619  158.0451 C.2     1  UNL1        0.2512
      6 O         137.0330  140.2134  157.9060 O.2     1  UNL1       -0.2698
      7 C         138.2745  141.5299  160.2989 C.3     1  UNL1        0.0940
      8 C         138.8951  142.1881  161.4952 C.3     1  UNL1        0.0257
      9 C         139.3978  139.6522  156.9879 C.ar    1  UNL1        0.0824
     10 C         139.7409  138.1932  157.0481 C.ar    1  UNL1        0.0249
     11 C         140.6130  137.5836  155.9908 C.ar    1  UNL1        0.0921
     12 C         141.1420  138.4330  154.8733 C.ar    1  UNL1        0.1568
     13 F         142.0140  137.8233  153.8161 F       1  UNL1       -0.2027
     14 C         140.7989  139.8920  154.8131 C.ar    1  UNL1        0.0607
     15 C         139.9268  140.5016  155.8704 C.ar    1  UNL1        0.1468
     16 F         139.5837  141.9606  155.8102 F       1  UNL1       -0.2039
     17 N         140.9561  136.1246  156.0510 N.pl3   1  UNL1       -0.2165
     18 H         140.2387  135.4512  156.0828 H       1  UNL1        0.1734
     19 S         142.3922  135.6918  156.0628 S.O2    1  UNL1        0.0559
     20 C         143.8284  135.2589  156.0746 C.3     1  UNL1        0.1996
     21 O         142.1573  134.8785  154.8245 O.2     1  UNL1       -0.1544
     22 O         142.6273  136.5050  157.3010 O.2     1  UNL1       -0.1544
     23 C         139.9858  142.9491  162.8917 C.ar    1  UNL1       -0.0204
     24 C         139.3886  144.3230  162.8169 C.ar    1  UNL1       -0.0041
     25 C         138.9865  145.0356  164.0742 C.ar    1  UNL1        0.0020
     26 C         139.1815  144.3740  165.4062 C.ar    1  UNL1        0.0296
     27 C         139.7787  143.0000  165.4810 C.ar    1  UNL1        0.1398
     28 F         139.9737  142.3386  166.8130 F       1  UNL1       -0.2042
     29 C         140.1808  142.2876  164.2237 C.ar    1  UNL1        0.0254
     30 C         141.7410  142.5325  162.2102 C.3     1  UNL1        0.0215
     31 C         142.6279  143.5506  161.5567 C.3     1  UNL1        0.0723
     32 C         142.6534  143.5465  161.4019 C.3     1  UNL1        0.0893
     33 C         141.6112  144.6186  161.2817 C.3     1  UNL1        0.0386
     34 C         141.2538  145.1693  159.9329 C.3     1  UNL1        0.0594
     35 C         141.2221  145.4088  158.4525 C.3     1  UNL1        0.0174
     36 C         142.2192  144.4888  157.8127 C.3     1  UNL1        0.0174
     37 C         142.8672  143.6807  158.8976 C.3     1  UNL1        0.0594
     38 C         143.3381  143.0251  160.1734 C.3     1  UNL1        0.0386
     39 N         142.2705  144.1013  160.2081 N.3     1  UNL1       -0.2751
     40 C         142.7515  145.2235  163.8254 C.3     1  UNL1        0.0718
     41 C         143.0841  143.7753  164.0300 C.ar    1  UNL1        0.1207
     42 N         143.4762  142.8301  165.1268 N.ar    1  UNL1       -0.2309
     43 C         143.6451  141.4664  164.5252 C.ar    1  UNL1        0.0983
     44 C         144.0236  140.1447  165.1250 C.ar    1  UNL1        0.0206
     45 C         144.1145  138.9254  164.2561 C.ar    1  UNL1        0.0016
     46 C         143.8268  139.0278  162.7876 C.ar    1  UNL1        0.0016
     47 C         143.4483  140.3495  162.1878 C.ar    1  UNL1        0.0188
     48 C         143.3574  141.5688  163.0567 C.ar    1  UNL1        0.0785
     49 N         143.0107  142.9957  162.7506 N.ar    1  UNL1       -0.3167
@<TRIPOS>BOND
     1    40    41    1
     2    41    42   ar
     3    42    43   ar
     4    43    44   ar
     5    44    45   ar
     6    45    46   ar
     7    46    47   ar
     8    47    48   ar
     9    48    49   ar
    10    49    32    1
    11    32    33    1
    12    33    34    1
    13    34    35    1
    14    35    36    1
    15    36    37    1
    16    37    38    1
    17    37    39    1
    18    39    31    1
    19    31    30    1
    20    30     1    1
    21     1    23    1
    22    23    24   ar
    23    24    25   ar
    24    25    26   ar
    25    26    27   ar
    26    27    28    1
    27    27    29   ar
    28     1     2    1
    29     2     3    1
    30     3     4    1
    31     4     5   am
    32     5     6    2
    33     5     9    1
    34     9    10   ar
    35    10    11   ar
    36    11    17    1
    37    17    19    1
    38    19    20    1
    39    19    21    2
    40    19    22    2
    41    11    12   ar
    42    12    13    1
    43    12    14   ar
    44    14    15   ar
    45    15    16    1
    46     4     7    1
    47     7     8    1
    48    49    41   ar
    49    38    32    1
    50     8     1    1
    51    48    43   ar
    52    39    34    1
    53    29    23   ar
    54    15     9   ar
    55    17    18    1
@<TRIPOS>MOLECULE
*****
 49 55 0 0 0
SMALL
GASTEIGER

@<TRIPOS>ATOM
      1 C         140.3599  141.6169  161.3559 C.3     1  UNL1        0.0236
      2 C         141.0896  141.9647  162.6195 C.3     1  UNL1        0.0257
      3 C         140.8872  141.1374  163.8543 C.3     1  UNL1        0.0940
      4 N         139.9552  139.9625  163.8255 N.am    1  UNL1       -0.2760
      5 C         139.7528  139.1353  165.0604 C.2     1  UNL1        0.2512
      6 O         138.8208  137.9603  165.0316 O.2     1  UNL1       -0.2698
      7 C         139.2255  139.6148  162.5619 C.3     1  UNL1        0.0940
      8 C         139.4279  140.4419  161.3271 C.3     1  UNL1        0.0257
      9 C         140.4825  139.4831  166.3239 C.ar    1  UNL1        0.0824
     10 C         139.7936  140.2780  167.3933 C.ar    1  UNL1        0.0249
     11 C         140.5234  140.6258  168.6568 C.ar    1  UNL1        0.0921
     12 C         141.9420  140.1786  168.8510 C.ar    1  UNL1        0.1568
     13 F         142.6717  140.5264  170.1146 F       1  UNL1       -0.2027
     14 C         142.6308  139.3837  167.7816 C.ar    1  UNL1        0.0607
     15 C         141.9011  139.0359  166.5181 C.ar    1  UNL1        0.1468
     16 F         142.5899  138.2410  165.4487 F       1  UNL1       -0.2039
     17 N         139.8346  141.4207  169.7262 N.pl3   1  UNL1       -0.2165
     18 H         139.1247  141.0059  170.2678 H       1  UNL1        0.1734
     19 S         140.2272  142.8477  169.9704 S.O2    1  UNL1        0.0559
     20 C         140.6198  144.2746  170.2146 C.3     1  UNL1        0.1996
     21 O         140.1805  143.1130  168.4948 O.2     1  UNL1       -0.1544
     22 O         140.2739  142.5823  171.4460 O.2     1  UNL1       -0.1544
     23 C         139.8982  141.6855  159.9303 C.ar    1  UNL1       -0.0204
     24 C         138.5165  142.1747  159.6121 C.ar    1  UNL1       -0.0041
     25 C         138.0548  142.2432  158.1865 C.ar    1  UNL1        0.0020
     26 C         138.9750  141.8225  157.0792 C.ar    1  UNL1        0.0296
     27 C         140.3568  141.3332  157.3974 C.ar    1  UNL1        0.1398
     28 F         141.2769  140.9125  156.2900 F       1  UNL1       -0.2042
     29 C         140.8184  141.2647  158.8230 C.ar    1  UNL1        0.0254
     30 C         141.1316  142.8156  160.8896 C.3     1  UNL1        0.0215
     31 C         140.8290  144.1702  161.4585 C.3     1  UNL1        0.0723
     32 C         140.8208  144.1972  161.6129 C.3     1  UNL1        0.0893
     33 C         139.3369  144.0192  161.4840 C.3     1  UNL1        0.0386
     34 C         138.4585  144.1457  162.6933 C.3     1  UNL1        0.0594
     35 C         137.9958  144.3521  164.1051 C.3     1  UNL1        0.0174
     36 C         139.2020  144.6307  164.9522 C.3     1  UNL1        0.0174
     37 C         140.4101  144.5965  164.0638 C.3     1  UNL1        0.0594
     38 C         141.4261  144.5018  162.9511 C.3     1  UNL1        0.0386
     39 N         139.9507  144.2967  162.6677 N.3     1  UNL1       -0.2751
     40 C         143.5286  143.0358  161.7332 C.3     1  UNL1        0.0718
     41 C         143.0839  143.4946  160.3761 C.ar    1  UNL1        0.1207
     42 N         143.5875  143.5660  158.9650 N.ar    1  UNL1       -0.2309
     43 C         142.5142  144.1861  158.1204 C.ar    1  UNL1        0.0983
     44 C         142.4487  144.5071  156.6566 C.ar    1  UNL1        0.0206
     45 C         141.2162  145.1400  156.0820 C.ar    1  UNL1        0.0016
     46 C         140.0491  145.4519  156.9712 C.ar    1  UNL1        0.0016
     47 C         140.1145  145.1310  158.4349 C.ar    1  UNL1        0.0188
     48 C         141.3471  144.4981  159.0096 C.ar    1  UNL1        0.0785
     49 N         141.6992  144.0707  160.4036 N.ar    1  UNL1       -0.3167
@<TRIPOS>BOND
     1    40    41    1
     2    41    42   ar
     3    42    43   ar
     4    43    44   ar
     5    44    45   ar
     6    45    46   ar
     7    46    47   ar
     8    47    48   ar
     9    48    49   ar
    10    49    32    1
    11    32    33    1
    12    33    34    1
    13    34    35    1
    14    35    36    1
    15    36    37    1
    16    37    38    1
    17    37    39    1
    18    39    31    1
    19    31    30    1
    20    30     1    1
    21     1    23    1
    22    23    24   ar
    23    24    25   ar
    24    25    26   ar
    25    26    27   ar
    26    27    28    1
    27    27    29   ar
    28     1     2    1
    29     2     3    1
    30     3     4    1
    31     4     5   am
    32     5     6    2
    33     5     9    1
    34     9    10   ar
    35    10    11   ar
    36    11    17    1
    37    17    19    1
    38    19    20    1
    39    19    21    2
    40    19    22    2
    41    11    12   ar
    42    12    13    1
    43    12    14   ar
    44    14    15   ar
    45    15    16    1
    46     4     7    1
    47     7     8    1
    48    49    41   ar
    49    38    32    1
    50     8     1    1
    51    48    43   ar
    52    39    34    1
    53    29    23   ar
    54    15     9   ar
    55    17    18    1
@<TRIPOS>MOLECULE
*****
 49 55 0 0 0
SMALL
GASTEIGER

@<TRIPOS>ATOM
      1 C         141.8775  141.2361  161.9504 C.3     1  UNL1        0.0236
      2 C         140.8128  140.6229  161.0900 C.3     1  UNL1        0.0257
      3 C         141.1699  140.0443  159.7529 C.3     1  UNL1        0.0940
      4 N         142.5917  140.0790  159.2762 N.am    1  UNL1       -0.2760
      5 C         142.9489  139.5004  157.9392 C.2     1  UNL1        0.2512
      6 O         144.3707  139.5351  157.4625 O.2     1  UNL1       -0.2698
      7 C         143.6565  140.6922  160.1367 C.3     1  UNL1        0.0940
      8 C         143.2994  141.2707  161.4737 C.3     1  UNL1        0.0257
      9 C         141.8841  138.8872  157.0788 C.ar    1  UNL1        0.0824
     10 C         140.9135  139.7655  156.3463 C.ar    1  UNL1        0.0249
     11 C         139.8488  139.1523  155.4859 C.ar    1  UNL1        0.0921
     12 C         139.7546  137.6607  155.3581 C.ar    1  UNL1        0.1568
     13 F         138.6898  137.0475  154.4977 F       1  UNL1       -0.2027
     14 C         140.7252  136.7824  156.0906 C.ar    1  UNL1        0.0607
     15 C         141.7899  137.3957  156.9509 C.ar    1  UNL1        0.1468
     16 F         142.7605  136.5174  157.6834 F       1  UNL1       -0.2039
     17 N         138.8782  140.0306  154.7534 N.pl3   1  UNL1       -0.2165
     18 H         138.8587  140.0288  153.7691 H       1  UNL1        0.1734
     19 S         137.9373  140.9116  155.5207 S.O2    1  UNL1        0.0559
     20 C         136.9965  141.7926  156.2879 C.3     1  UNL1        0.1996
     21 O         138.7303  142.1166  155.1093 O.2     1  UNL1       -0.1544
     22 O         137.1444  139.7067  155.9320 O.2     1  UNL1       -0.1544
     23 C         142.5268  141.9198  163.1171 C.ar    1  UNL1       -0.0204
     24 C         142.7223  141.1790  164.4067 C.ar    1  UNL1       -0.0041
     25 C         143.3716  141.8627  165.5734 C.ar    1  UNL1        0.0020
     26 C         143.8254  143.2871  165.4503 C.ar    1  UNL1        0.0296
     27 C         143.6299  144.0278  164.1607 C.ar    1  UNL1        0.1398
     28 F         144.0837  145.4522  164.0378 F       1  UNL1       -0.2042
     29 C         142.9806  143.3441  162.9941 C.ar    1  UNL1        0.0254
     30 C         140.6812  141.4389  162.8322 C.3     1  UNL1        0.0215
     31 C         139.6112  142.4113  162.4327 C.3     1  UNL1        0.0723
     32 C         139.5557  142.4102  162.2859 C.3     1  UNL1        0.0893
     33 C         140.4533  143.5831  162.0234 C.3     1  UNL1        0.0386
     34 C         140.4835  144.2147  160.6632 C.3     1  UNL1        0.0594
     35 C         140.1975  144.5096  159.2205 C.3     1  UNL1        0.0174
     36 C         139.1786  143.5200  158.7383 C.3     1  UNL1        0.0174
     37 C         138.8349  142.6135  159.8829 C.3     1  UNL1        0.0594
     38 C         138.6885  141.8691  161.1882 C.3     1  UNL1        0.0386
     39 N         139.6414  143.0428  161.0726 N.3     1  UNL1       -0.2751
     40 C         139.9322  143.9623  164.7648 C.3     1  UNL1        0.0718
     41 C         139.7071  142.4914  164.9534 C.ar    1  UNL1        0.1207
     42 N         139.6021  141.4766  166.0530 N.ar    1  UNL1       -0.2309
     43 C         139.3556  140.1367  165.4254 C.ar    1  UNL1        0.0983
     44 C         139.1681  138.7708  166.0162 C.ar    1  UNL1        0.0206
     45 C         138.9333  137.5916  165.1194 C.ar    1  UNL1        0.0016
     46 C         138.8859  137.7782  163.6319 C.ar    1  UNL1        0.0016
     47 C         139.0733  139.1441  163.0410 C.ar    1  UNL1        0.0188
     48 C         139.3082  140.3234  163.9378 C.ar    1  UNL1        0.0785
     49 N         139.5254  141.7786  163.6461 N.ar    1  UNL1       -0.3167
@<TRIPOS>BOND
     1    40    41    1
     2    41    42   ar
     3    42    43   ar
     4    43    44   ar
     5    44    45   ar
     6    45    46   ar
     7    46    47   ar
     8    47    48   ar
     9    48    49   ar
    10    49    32    1
    11    32    33    1
    12    33    34    1
    13    34    35    1
    14    35    36    1
    15    36    37    1
    16    37    38    1
    17    37    39    1
    18    39    31    1
    19    31    30    1
    20    30     1    1
    21     1    23    1
    22    23    24   ar
    23    24    25   ar
    24    25    26   ar
    25    26    27   ar
    26    27    28    1
    27    27    29   ar
    28     1     2    1
    29     2     3    1
    30     3     4    1
    31     4     5   am
    32     5     6    2
    33     5     9    1
    34     9    10   ar
    35    10    11   ar
    36    11    17    1
    37    17    19    1
    38    19    20    1
    39    19    21    2
    40    19    22    2
    41    11    12   ar
    42    12    13    1
    43    12    14   ar
    44    14    15   ar
    45    15    16    1
    46     4     7    1
    47     7     8    1
    48    49    41   ar
    49    38    32    1
    50     8     1    1
    51    48    43   ar
    52    39    34    1
    53    29    23   ar
    54    15     9   ar
    55    17    18    1
@<TRIPOS>MOLECULE
*****
 49 55 0 0 0
SMALL
GASTEIGER

@<TRIPOS>ATOM
      1 C         140.4620  141.2438  161.4891 C.3     1  UNL1        0.0236
      2 C         141.7188  140.8063  160.7970 C.3     1  UNL1        0.0257
      3 C         141.6382  140.0278  159.5174 C.3     1  UNL1        0.0940
      4 N         140.3009  139.6868  158.9299 N.am    1  UNL1       -0.2760
      5 C         140.2203  138.9082  157.6503 C.2     1  UNL1        0.2512
      6 O         138.8830  138.5672  157.0628 O.2     1  UNL1       -0.2698
      7 C         139.0441  140.1243  159.6220 C.3     1  UNL1        0.0940
      8 C         139.1246  140.9028  160.9016 C.3     1  UNL1        0.0257
      9 C         141.4772  138.4708  156.9582 C.ar    1  UNL1        0.0824
     10 C         141.9378  137.0475  157.0687 C.ar    1  UNL1        0.0249
     11 C         143.1947  136.6102  156.3766 C.ar    1  UNL1        0.0921
     12 C         143.9909  137.5960  155.5740 C.ar    1  UNL1        0.1568
     13 F         145.2478  137.1586  154.8820 F       1  UNL1       -0.2027
     14 C         143.5303  139.0193  155.4636 C.ar    1  UNL1        0.0607
     15 C         142.2735  139.4566  156.1557 C.ar    1  UNL1        0.1468
     16 F         141.8128  140.8799  156.0452 F       1  UNL1       -0.2039
     17 N         143.6553  135.1869  156.4870 N.pl3   1  UNL1       -0.2165
     18 H         144.5532  134.9859  156.8370 H       1  UNL1        0.1734
     19 S         142.7477  134.0699  156.0642 S.O2    1  UNL1        0.0559
     20 C         141.8402  132.9530  155.6414 C.3     1  UNL1        0.1996
     21 O         142.6732  134.6530  154.6841 O.2     1  UNL1       -0.1544
     22 O         142.8223  133.4869  157.4442 O.2     1  UNL1       -0.1544
     23 C         139.5609  141.8760  162.5082 C.ar    1  UNL1       -0.0204
     24 C         139.3928  141.2418  163.8570 C.ar    1  UNL1       -0.0041
     25 C         138.4917  141.8740  164.8761 C.ar    1  UNL1        0.0020
     26 C         137.7587  143.1404  164.5462 C.ar    1  UNL1        0.0296
     27 C         137.9268  143.7747  163.1973 C.ar    1  UNL1        0.1398
     28 F         137.1938  145.0411  162.8675 F       1  UNL1       -0.2042
     29 C         138.8279  143.1424  162.1783 C.ar    1  UNL1        0.0254
     30 C         141.4863  141.8044  162.4305 C.3     1  UNL1        0.0215
     31 C         142.3358  142.9668  162.0091 C.3     1  UNL1        0.0723
     32 C         142.4139  142.9600  161.8732 C.3     1  UNL1        0.0893
     33 C         141.3211  143.8091  161.2944 C.3     1  UNL1        0.0386
     34 C         141.3723  144.2166  159.8517 C.3     1  UNL1        0.0594
     35 C         141.8201  144.3740  158.4287 C.3     1  UNL1        0.0174
     36 C         143.1116  143.6289  158.2642 C.3     1  UNL1        0.0174
     37 C         143.4619  143.0111  159.5853 C.3     1  UNL1        0.0594
     38 C         143.5579  142.5186  161.0093 C.3     1  UNL1        0.0386
     39 N         142.3870  143.3743  160.5666 N.3     1  UNL1       -0.2751
     40 C         141.4094  144.7478  163.9923 C.3     1  UNL1        0.0718
     41 C         141.8686  143.3963  164.4534 C.ar    1  UNL1        0.1207
     42 N         141.9971  142.5949  165.7148 N.ar    1  UNL1       -0.2309
     43 C         142.5706  141.2559  165.3569 C.ar    1  UNL1        0.0983
     44 C         142.9162  140.0570  166.1896 C.ar    1  UNL1        0.0206
     45 C         143.4878  138.8320  165.5395 C.ar    1  UNL1        0.0016
     46 C         143.7138  138.8058  164.0569 C.ar    1  UNL1        0.0016
     47 C         143.3681  140.0047  163.2242 C.ar    1  UNL1        0.0188
     48 C         142.7965  141.2297  163.8743 C.ar    1  UNL1        0.0785
     49 N         142.3627  142.5525  163.3159 N.ar    1  UNL1       -0.3167
@<TRIPOS>BOND
     1    40    41    1
     2    41    42   ar
     3    42    43   ar
     4    43    44   ar
     5    44    45   ar
     6    45    46   ar
     7    46    47   ar
     8    47    48   ar
     9    48    49   ar
    10    49    32    1
    11    32    33    1
    12    33    34    1
    13    34    35    1
    14    35    36    1
    15    36    37    1
    16    37    38    1
    17    37    39    1
    18    39    31    1
    19    31    30    1
    20    30     1    1
    21     1    23    1
    22    23    24   ar
    23    24    25   ar
    24    25    26   ar
    25    26    27   ar
    26    27    28    1
    27    27    29   ar
    28     1     2    1
    29     2     3    1
    30     3     4    1
    31     4     5   am
    32     5     6    2
    33     5     9    1
    34     9    10   ar
    35    10    11   ar
    36    11    17    1
    37    17    19    1
    38    19    20    1
    39    19    21    2
    40    19    22    2
    41    11    12   ar
    42    12    13    1
    43    12    14   ar
    44    14    15   ar
    45    15    16    1
    46     4     7    1
    47     7     8    1
    48    49    41   ar
    49    38    32    1
    50     8     1    1
    51    48    43   ar
    52    39    34    1
    53    29    23   ar
    54    15     9   ar
    55    17    18    1
@<TRIPOS>MOLECULE
*****
 49 55 0 0 0
SMALL
GASTEIGER

@<TRIPOS>ATOM
      1 C         141.0459  142.1229  161.1607 C.3     1  UNL1        0.0236
      2 C         140.7376  141.1988  162.3013 C.3     1  UNL1        0.0257
      3 C         141.5490  141.2655  163.5611 C.3     1  UNL1        0.0940
      4 N         142.6688  142.2564  163.6804 N.am    1  UNL1       -0.2760
      5 C         143.4802  142.3231  164.9402 C.2     1  UNL1        0.2512
      6 O         144.5999  143.3140  165.0595 O.2     1  UNL1       -0.2698
      7 C         142.9771  143.1806  162.5398 C.3     1  UNL1        0.0940
      8 C         142.1657  143.1139  161.2801 C.3     1  UNL1        0.0257
      9 C         143.1718  141.3989  166.0807 C.ar    1  UNL1        0.0824
     10 C         142.7271  141.9577  167.3998 C.ar    1  UNL1        0.0249
     11 C         142.4187  141.0334  168.5402 C.ar    1  UNL1        0.0921
     12 C         142.5550  139.5503  168.3616 C.ar    1  UNL1        0.1568
     13 F         142.2466  138.6261  169.5021 F       1  UNL1       -0.2027
     14 C         142.9997  138.9915  167.0425 C.ar    1  UNL1        0.0607
     15 C         143.3081  139.9158  165.9021 C.ar    1  UNL1        0.1468
     16 F         143.7528  139.3570  164.5830 F       1  UNL1       -0.2039
     17 N         141.9740  141.5922  169.8593 N.pl3   1  UNL1       -0.2165
     18 H         142.2162  141.1325  170.6955 H       1  UNL1        0.1734
     19 S         141.1603  142.8515  169.9043 S.O2    1  UNL1        0.0559
     20 C         140.3466  144.1109  169.9494 C.3     1  UNL1        0.1996
     21 O         142.3249  143.5826  170.5038 O.2     1  UNL1       -0.1544
     22 O         139.9957  142.1205  169.3050 O.2     1  UNL1       -0.1544
     23 C         140.9543  142.7826  159.8166 C.ar    1  UNL1       -0.0204
     24 C         141.3825  142.0397  158.5859 C.ar    1  UNL1       -0.0041
     25 C         141.2910  142.6994  157.2417 C.ar    1  UNL1        0.0020
     26 C         140.7712  144.1019  157.1285 C.ar    1  UNL1        0.0296
     27 C         140.3430  144.8448  158.3594 C.ar    1  UNL1        0.1398
     28 F         139.8233  146.2472  158.2461 F       1  UNL1       -0.2042
     29 C         140.4346  144.1850  159.7034 C.ar    1  UNL1        0.0254
     30 C         139.8944  141.3612  160.5747 C.3     1  UNL1        0.0215
     31 C         138.5167  141.5288  161.1439 C.3     1  UNL1        0.0723
     32 C         138.4895  141.5278  161.2985 C.3     1  UNL1        0.0893
     33 C         138.5298  143.0260  161.2350 C.3     1  UNL1        0.0386
     34 C         138.3267  143.8353  162.4816 C.3     1  UNL1        0.0594
     35 C         138.0830  144.2147  163.9122 C.3     1  UNL1        0.0174
     36 C         137.9192  142.9520  164.7052 C.3     1  UNL1        0.0174
     37 C         138.0617  141.7922  163.7647 C.3     1  UNL1        0.0594
     38 C         138.2462  140.8391  162.6085 C.3     1  UNL1        0.0386
     39 N         138.3136  142.3380  162.3904 N.3     1  UNL1       -0.2751
     40 C         139.6818  138.8310  161.3341 C.3     1  UNL1        0.0718
     41 C         139.2892  139.3442  159.9804 C.ar    1  UNL1        0.1207
     42 N         139.3001  138.9179  158.5423 N.ar    1  UNL1       -0.2309
     43 C         138.7102  140.0289  157.7251 C.ar    1  UNL1        0.0983
     44 C         138.4664  140.1708  156.2519 C.ar    1  UNL1        0.0206
     45 C         137.8472  141.4257  155.7117 C.ar    1  UNL1        0.0016
     46 C         137.4717  142.5386  156.6447 C.ar    1  UNL1        0.0016
     47 C         137.7155  142.3966  158.1179 C.ar    1  UNL1        0.0188
     48 C         138.3347  141.1417  158.6581 C.ar    1  UNL1        0.0785
     49 N         138.6926  140.7186  160.0520 N.ar    1  UNL1       -0.3167
@<TRIPOS>BOND
     1    40    41    1
     2    41    42   ar
     3    42    43   ar
     4    43    44   ar
     5    44    45   ar
     6    45    46   ar
     7    46    47   ar
     8    47    48   ar
     9    48    49   ar
    10    49    32    1
    11    32    33    1
    12    33    34    1
    13    34    35    1
    14    35    36    1
    15    36    37    1
    16    37    38    1
    17    37    39    1
    18    39    31    1
    19    31    30    1
    20    30     1    1
    21     1    23    1
    22    23    24   ar
    23    24    25   ar
    24    25    26   ar
    25    26    27   ar
    26    27    28    1
    27    27    29   ar
    28     1     2    1
    29     2     3    1
    30     3     4    1
    31     4     5   am
    32     5     6    2
    33     5     9    1
    34     9    10   ar
    35    10    11   ar
    36    11    17    1
    37    17    19    1
    38    19    20    1
    39    19    21    2
    40    19    22    2
    41    11    12   ar
    42    12    13    1
    43    12    14   ar
    44    14    15   ar
    45    15    16    1
    46     4     7    1
    47     7     8    1
    48    49    41   ar
    49    38    32    1
    50     8     1    1
    51    48    43   ar
    52    39    34    1
    53    29    23   ar
    54    15     9   ar
    55    17    18    1
