@<TRIPOS>MOLECULE
*****
 37 40 0 0 0
SMALL
GASTEIGER

@<TRIPOS>ATOM
      1 C         141.3425  143.5105  161.7140 C.ar    1  UNL1        0.0183
      2 C         142.0413  142.2250  162.0446 C.ar    1  UNL1        0.0017
      3 C         142.3394  141.8794  163.4734 C.ar    1  UNL1        0.0046
      4 C         141.9386  142.8191  164.5717 C.ar    1  UNL1        0.0537
      5 C         141.2398  144.1045  164.2412 C.ar    1  UNL1        0.0046
      6 C         140.9418  144.4502  162.8123 C.ar    1  UNL1        0.0017
      7 C         140.4483  144.5477  157.4274 C.ar    1  UNL1        0.0137
      8 C         141.7404  144.9853  158.0512 C.ar    1  UNL1        0.0959
      9 N         142.0384  144.6396  159.4800 N.ar    1  UNL1       -0.2434
     10 C         141.0444  143.8562  160.2851 C.ar    1  UNL1        0.0908
     11 C         139.7524  143.4186  159.6614 C.ar    1  UNL1        0.0858
     12 C         139.4543  143.7643  158.2325 C.ar    1  UNL1        0.0104
     13 C         138.7584  142.6352  160.4666 C.1     1  UNL1        0.1019
     14 N         137.7643  141.8518  161.2717 N.1     1  UNL1       -0.1908
     15 C         140.1503  144.8934  155.9986 C.3     1  UNL1        0.1008
     16 N         139.4126  149.1750  154.8264 N.3     1  UNL1       -0.2716
     17 C         138.8315  148.6352  156.0995 C.3     1  UNL1        0.0896
     18 C         139.0774  147.2080  156.4902 C.3     1  UNL1        0.0899
     19 N         139.9044  146.3206  155.6078 N.3     1  UNL1       -0.2665
     20 C         140.4855  146.8604  154.3347 C.3     1  UNL1        0.0899
     21 C         140.2396  148.2876  153.9440 C.3     1  UNL1        0.0896
     22 C         138.6591  151.5813  155.4523 C.3     1  UNL1        0.0173
     23 C         139.1667  150.6022  154.4357 C.3     1  UNL1        0.0577
     24 C         139.4284  151.0502  153.0283 C.3     1  UNL1        0.0173
     25 C         142.2367  142.4734  166.0006 C.2     1  UNL1        0.2495
     26 O         143.6093  142.7080  166.5584 O.2     1  UNL1       -0.2698
     27 N         141.1623  141.8930  166.8717 N.am    1  UNL1       -0.2794
     28 H         140.2615  141.7390  166.5056 H       1  UNL1        0.1552
     29 C         141.4605  141.5473  168.3005 C.ar    1  UNL1        0.0636
     30 C         142.2550  140.3169  168.6244 C.ar    1  UNL1        0.0159
     31 C         142.5531  139.9712  170.0532 C.ar    1  UNL1        0.0014
     32 C         142.0568  140.8559  171.1582 C.ar    1  UNL1        0.0013
     33 C         141.2623  142.0862  170.8343 C.ar    1  UNL1        0.0153
     34 C         140.9641  142.4320  169.4054 C.ar    1  UNL1        0.0552
     35 N         140.1696  143.6624  169.0816 N.pl3   1  UNL1       -0.3560
     36 H         139.8439  144.2430  169.8069 H       1  UNL1        0.1424
     37 H         139.9739  143.8893  168.1438 H       1  UNL1        0.1424
@<TRIPOS>BOND
     1    22    23    1
     2    23    24    1
     3    23    16    1
     4    16    17    1
     5    17    18    1
     6    18    19    1
     7    19    15    1
     8    15     7    1
     9     7     8   ar
    10     8     9   ar
    11     9    10   ar
    12    10     1    1
    13     1     2   ar
    14     2     3   ar
    15     3     4   ar
    16     4    25    1
    17    25    26    2
    18    25    27   am
    19    27    29    1
    20    29    30   ar
    21    30    31   ar
    22    31    32   ar
    23    32    33   ar
    24    33    34   ar
    25    34    35    1
    26     4     5   ar
    27     5     6   ar
    28    10    11   ar
    29    11    13    1
    30    13    14    3
    31    11    12   ar
    32    19    20    1
    33    20    21    1
    34    21    16    1
    35    12     7   ar
    36     6     1   ar
    37    34    29   ar
    38    27    28    1
    39    35    36    1
    40    35    37    1
@<TRIPOS>MOLECULE
*****
 37 40 0 0 0
SMALL
GASTEIGER

@<TRIPOS>ATOM
      1 C         140.9585  138.9188  162.0508 C.ar    1  UNL1        0.0183
      2 C         140.4279  137.9024  163.0179 C.ar    1  UNL1        0.0017
      3 C         140.2538  138.2622  164.4637 C.ar    1  UNL1        0.0046
      4 C         140.6104  139.6383  164.9424 C.ar    1  UNL1        0.0537
      5 C         141.1410  140.6547  163.9753 C.ar    1  UNL1        0.0046
      6 C         141.3151  140.2950  162.5295 C.ar    1  UNL1        0.0017
      7 C         141.4808  137.8397  157.7134 C.ar    1  UNL1        0.0137
      8 C         142.6292  137.6910  158.6669 C.ar    1  UNL1        0.0959
      9 N         142.4551  138.0507  160.1126 N.ar    1  UNL1       -0.2434
     10 C         141.1326  138.5591  160.6050 C.ar    1  UNL1        0.0908
     11 C         139.9842  138.7079  159.6516 C.ar    1  UNL1        0.0858
     12 C         140.1583  138.3482  158.2058 C.ar    1  UNL1        0.0104
     13 C         138.6617  139.2164  160.1440 C.1     1  UNL1        0.1019
     14 N         137.3392  139.7248  160.6363 N.1     1  UNL1       -0.1908
     15 C         141.6549  137.4801  156.2676 C.3     1  UNL1        0.1008
     16 N         143.0188  133.3465  155.1259 N.3     1  UNL1       -0.2716
     17 C         141.5842  133.7417  154.9373 C.3     1  UNL1        0.0896
     18 C         141.1296  135.1196  155.3179 C.3     1  UNL1        0.0899
     19 N         142.1095  136.1022  155.8870 N.3     1  UNL1       -0.2665
     20 C         143.5442  135.7070  156.0756 C.3     1  UNL1        0.0899
     21 C         143.9988  134.3292  155.6950 C.3     1  UNL1        0.0896
     22 C         142.9774  131.3387  153.4776 C.3     1  UNL1        0.0173
     23 C         143.4735  131.9687  154.7453 C.3     1  UNL1        0.0577
     24 C         144.4241  131.2208  155.6323 C.3     1  UNL1        0.0173
     25 C         140.4363  139.9980  166.3882 C.2     1  UNL1        0.2495
     26 O         139.2645  139.4646  167.1579 O.2     1  UNL1       -0.2698
     27 N         141.4340  140.8910  167.0643 N.am    1  UNL1       -0.2794
     28 H         142.2031  141.2410  166.5591 H       1  UNL1        0.1552
     29 C         141.2599  141.2506  168.5100 C.ar    1  UNL1        0.0636
     30 C         140.3789  142.4018  168.8957 C.ar    1  UNL1        0.0159
     31 C         140.2048  142.7615  170.3415 C.ar    1  UNL1        0.0014
     32 C         140.9116  141.9700  171.4016 C.ar    1  UNL1        0.0013
     33 C         141.7926  140.8188  171.0160 C.ar    1  UNL1        0.0153
     34 C         141.9667  140.4591  169.5702 C.ar    1  UNL1        0.0552
     35 N         142.8477  139.3080  169.1846 N.pl3   1  UNL1       -0.3560
     36 H         143.3116  138.7885  169.8804 H       1  UNL1        0.1424
     37 H         142.9620  139.0719  168.2357 H       1  UNL1        0.1424
@<TRIPOS>BOND
     1    22    23    1
     2    23    24    1
     3    23    16    1
     4    16    17    1
     5    17    18    1
     6    18    19    1
     7    19    15    1
     8    15     7    1
     9     7     8   ar
    10     8     9   ar
    11     9    10   ar
    12    10     1    1
    13     1     2   ar
    14     2     3   ar
    15     3     4   ar
    16     4    25    1
    17    25    26    2
    18    25    27   am
    19    27    29    1
    20    29    30   ar
    21    30    31   ar
    22    31    32   ar
    23    32    33   ar
    24    33    34   ar
    25    34    35    1
    26     4     5   ar
    27     5     6   ar
    28    10    11   ar
    29    11    13    1
    30    13    14    3
    31    11    12   ar
    32    19    20    1
    33    20    21    1
    34    21    16    1
    35    12     7   ar
    36     6     1   ar
    37    34    29   ar
    38    27    28    1
    39    35    36    1
    40    35    37    1
@<TRIPOS>MOLECULE
*****
 37 40 0 0 0
SMALL
GASTEIGER

@<TRIPOS>ATOM
      1 C         140.6469  139.3308  161.2025 C.ar    1  UNL1        0.0183
      2 C         140.7778  140.8133  161.3900 C.ar    1  UNL1        0.0017
      3 C         140.5055  141.4264  162.7316 C.ar    1  UNL1        0.0046
      4 C         140.1023  140.5570  163.8856 C.ar    1  UNL1        0.0537
      5 C         139.9714  139.0746  163.6980 C.ar    1  UNL1        0.0046
      6 C         140.2437  138.4615  162.3565 C.ar    1  UNL1        0.0017
      7 C         141.4637  137.4913  157.1776 C.ar    1  UNL1        0.0137
      8 C         140.0962  138.0179  157.4980 C.ar    1  UNL1        0.0959
      9 N         139.8239  138.6311  158.8396 N.ar    1  UNL1       -0.2434
     10 C         140.9192  138.7177  159.8608 C.ar    1  UNL1        0.0908
     11 C         142.2867  138.1911  159.5405 C.ar    1  UNL1        0.0858
     12 C         142.5590  137.5779  158.1988 C.ar    1  UNL1        0.0104
     13 C         143.3819  138.2777  160.5617 C.1     1  UNL1        0.1019
     14 N         144.4772  138.3643  161.5830 N.1     1  UNL1       -0.1908
     15 C         141.7360  136.8782  155.8360 C.3     1  UNL1        0.1008
     16 N         143.0187  132.5746  155.5475 N.3     1  UNL1       -0.2716
     17 C         141.6355  132.9747  155.1272 C.3     1  UNL1        0.0896
     18 C         141.2079  134.4092  155.2234 C.3     1  UNL1        0.0899
     19 N         142.1635  135.4437  155.7398 N.3     1  UNL1       -0.2665
     20 C         143.5467  135.0435  156.1601 C.3     1  UNL1        0.0899
     21 C         143.9743  133.6090  156.0639 C.3     1  UNL1        0.0896
     22 C         144.8257  130.7381  155.8820 C.3     1  UNL1        0.0173
     23 C         143.4463  131.1400  155.4513 C.3     1  UNL1        0.0577
     24 C         142.4944  130.1074  154.9244 C.3     1  UNL1        0.0173
     25 C         139.8300  141.1702  165.2273 C.2     1  UNL1        0.2495
     26 O         138.7169  142.1632  165.3861 O.2     1  UNL1       -0.2698
     27 N         140.6707  140.7905  166.4100 N.am    1  UNL1       -0.2794
     28 H         141.4012  140.1388  166.3058 H       1  UNL1        0.1552
     29 C         140.3984  141.4036  167.7516 C.ar    1  UNL1        0.0636
     30 C         141.0108  142.7251  168.1105 C.ar    1  UNL1        0.0159
     31 C         140.7385  143.3383  169.4521 C.ar    1  UNL1        0.0014
     32 C         139.8537  142.6301  170.4347 C.ar    1  UNL1        0.0013
     33 C         139.2413  141.3087  170.0759 C.ar    1  UNL1        0.0153
     34 C         139.5136  140.6954  168.7343 C.ar    1  UNL1        0.0552
     35 N         138.9012  139.3740  168.3754 N.pl3   1  UNL1       -0.3560
     36 H         138.3205  138.9092  169.0204 H       1  UNL1        0.1424
     37 H         139.0799  138.9716  167.4949 H       1  UNL1        0.1424
@<TRIPOS>BOND
     1    22    23    1
     2    23    24    1
     3    23    16    1
     4    16    17    1
     5    17    18    1
     6    18    19    1
     7    19    15    1
     8    15     7    1
     9     7     8   ar
    10     8     9   ar
    11     9    10   ar
    12    10     1    1
    13     1     2   ar
    14     2     3   ar
    15     3     4   ar
    16     4    25    1
    17    25    26    2
    18    25    27   am
    19    27    29    1
    20    29    30   ar
    21    30    31   ar
    22    31    32   ar
    23    32    33   ar
    24    33    34   ar
    25    34    35    1
    26     4     5   ar
    27     5     6   ar
    28    10    11   ar
    29    11    13    1
    30    13    14    3
    31    11    12   ar
    32    19    20    1
    33    20    21    1
    34    21    16    1
    35    12     7   ar
    36     6     1   ar
    37    34    29   ar
    38    27    28    1
    39    35    36    1
    40    35    37    1
@<TRIPOS>MOLECULE
*****
 37 40 0 0 0
SMALL
GASTEIGER

@<TRIPOS>ATOM
      1 C         139.2941  142.2687  159.7155 C.ar    1  UNL1        0.0183
      2 C         140.2759  143.4006  159.6473 C.ar    1  UNL1        0.0017
      3 C         140.2892  144.3110  158.4552 C.ar    1  UNL1        0.0046
      4 C         139.3208  144.0894  157.3314 C.ar    1  UNL1        0.0537
      5 C         138.3390  142.9574  157.3996 C.ar    1  UNL1        0.0046
      6 C         138.3256  142.0471  158.5917 C.ar    1  UNL1        0.0017
      7 C         139.2539  139.5375  163.2917 C.ar    1  UNL1        0.0137
      8 C         139.7798  139.0435  161.9766 C.ar    1  UNL1        0.0959
      9 N         139.7932  139.9539  160.7846 N.ar    1  UNL1       -0.2434
     10 C         139.2807  141.3583  160.9076 C.ar    1  UNL1        0.0908
     11 C         138.7548  141.8522  162.2227 C.ar    1  UNL1        0.0858
     12 C         138.7414  140.9418  163.4148 C.ar    1  UNL1        0.0104
     13 C         138.2423  143.2566  162.3457 C.1     1  UNL1        0.1019
     14 N         137.7298  144.6609  162.4687 N.1     1  UNL1       -0.1908
     15 C         139.2406  138.6271  164.4838 C.3     1  UNL1        0.1008
     16 N         140.9860  140.0129  168.3931 N.3     1  UNL1       -0.2716
     17 C         139.4979  139.9691  168.2097 C.3     1  UNL1        0.0896
     18 C         138.9161  139.5072  166.9066 C.3     1  UNL1        0.0899
     19 N         139.8224  139.0890  165.7869 N.3     1  UNL1       -0.2665
     20 C         141.3104  139.1329  165.9703 C.3     1  UNL1        0.0899
     21 C         141.8923  139.5948  167.2734 C.3     1  UNL1        0.0896
     22 C         142.9692  141.0074  169.7451 C.3     1  UNL1        0.0173
     23 C         141.5678  140.4749  169.6962 C.3     1  UNL1        0.0577
     24 C         140.7482  140.4043  170.9505 C.3     1  UNL1        0.0173
     25 C         139.3342  144.9998  156.1393 C.2     1  UNL1        0.2495
     26 O         138.3609  144.7826  155.0188 O.2     1  UNL1       -0.2698
     27 N         140.3208  146.1273  156.0677 N.am    1  UNL1       -0.2794
     28 H         140.9596  146.2699  156.8031 H       1  UNL1        0.1552
     29 C         140.3342  147.0376  154.8756 C.ar    1  UNL1        0.0636
     30 C         141.0866  146.6434  153.6393 C.ar    1  UNL1        0.0159
     31 C         141.0999  147.5538  152.4472 C.ar    1  UNL1        0.0014
     32 C         140.3609  148.8583  152.4914 C.ar    1  UNL1        0.0013
     33 C         139.6085  149.2525  153.7277 C.ar    1  UNL1        0.0153
     34 C         139.5951  148.3422  154.9199 C.ar    1  UNL1        0.0552
     35 N         138.8427  148.7364  156.1561 N.pl3   1  UNL1       -0.3560
     36 H         138.3576  149.5926  156.1851 H       1  UNL1        0.1424
     37 H         138.8339  148.1389  156.9386 H       1  UNL1        0.1424
@<TRIPOS>BOND
     1    22    23    1
     2    23    24    1
     3    23    16    1
     4    16    17    1
     5    17    18    1
     6    18    19    1
     7    19    15    1
     8    15     7    1
     9     7     8   ar
    10     8     9   ar
    11     9    10   ar
    12    10     1    1
    13     1     2   ar
    14     2     3   ar
    15     3     4   ar
    16     4    25    1
    17    25    26    2
    18    25    27   am
    19    27    29    1
    20    29    30   ar
    21    30    31   ar
    22    31    32   ar
    23    32    33   ar
    24    33    34   ar
    25    34    35    1
    26     4     5   ar
    27     5     6   ar
    28    10    11   ar
    29    11    13    1
    30    13    14    3
    31    11    12   ar
    32    19    20    1
    33    20    21    1
    34    21    16    1
    35    12     7   ar
    36     6     1   ar
    37    34    29   ar
    38    27    28    1
    39    35    36    1
    40    35    37    1
@<TRIPOS>MOLECULE
*****
 37 40 0 0 0
SMALL
GASTEIGER

@<TRIPOS>ATOM
      1 C         142.7253  140.9232  159.6357 C.ar    1  UNL1        0.0183
      2 C         142.6726  140.0206  158.4389 C.ar    1  UNL1        0.0017
      3 C         143.6576  140.1983  157.3216 C.ar    1  UNL1        0.0046
      4 C         144.6952  141.2786  157.4013 C.ar    1  UNL1        0.0537
      5 C         144.7478  142.1812  158.5981 C.ar    1  UNL1        0.0046
      6 C         143.7629  142.0035  159.7153 C.ar    1  UNL1        0.0017
      7 C         139.7704  140.3901  162.9876 C.ar    1  UNL1        0.0137
      8 C         139.6128  141.5277  162.0226 C.ar    1  UNL1        0.0959
      9 N         140.5978  141.7054  160.9054 N.ar    1  UNL1       -0.2434
     10 C         141.7403  140.7455  160.7530 C.ar    1  UNL1        0.0908
     11 C         141.8979  139.6079  161.7179 C.ar    1  UNL1        0.0858
     12 C         140.9129  139.4302  162.8352 C.ar    1  UNL1        0.0104
     13 C         143.0404  138.6480  161.5656 C.1     1  UNL1        0.1019
     14 N         144.1829  137.6881  161.4132 N.1     1  UNL1       -0.1908
     15 C         138.7854  140.2125  164.1048 C.3     1  UNL1        0.1008
     16 N         139.9684  141.2181  168.3285 N.3     1  UNL1       -0.2716
     17 C         140.2502  142.1880  167.2195 C.3     1  UNL1        0.0896
     18 C         139.8559  141.8528  165.8116 C.3     1  UNL1        0.0899
     19 N         139.1797  140.5477  165.5127 N.3     1  UNL1       -0.2665
     20 C         138.8978  139.5778  166.6216 C.3     1  UNL1        0.0899
     21 C         139.2922  139.9130  168.0295 C.3     1  UNL1        0.0896
     22 C         140.6378  140.4548  170.7199 C.3     1  UNL1        0.0173
     23 C         140.3627  141.5533  169.7363 C.3     1  UNL1        0.0577
     24 C         140.4819  142.9871  170.1607 C.3     1  UNL1        0.0173
     25 C         145.6802  141.4563  156.2840 C.2     1  UNL1        0.2495
     26 O         145.5050  140.6974  155.0020 O.2     1  UNL1       -0.2698
     27 N         146.8402  142.3928  156.4486 N.am    1  UNL1       -0.2794
     28 H         146.9552  142.8909  157.2900 H       1  UNL1        0.1552
     29 C         147.8251  142.5705  155.3314 C.ar    1  UNL1        0.0636
     30 C         149.0697  141.7342  155.2886 C.ar    1  UNL1        0.0159
     31 C         150.0546  141.9119  154.1713 C.ar    1  UNL1        0.0014
     32 C         149.7950  142.9257  153.0968 C.ar    1  UNL1        0.0013
     33 C         148.5505  143.7620  153.1395 C.ar    1  UNL1        0.0153
     34 C         147.5655  143.5843  154.2568 C.ar    1  UNL1        0.0552
     35 N         146.3210  144.4205  154.2995 N.pl3   1  UNL1       -0.3560
     36 H         146.1506  145.0860  153.5942 H       1  UNL1        0.1424
     37 H         145.6745  144.3040  155.0328 H       1  UNL1        0.1424
@<TRIPOS>BOND
     1    22    23    1
     2    23    24    1
     3    23    16    1
     4    16    17    1
     5    17    18    1
     6    18    19    1
     7    19    15    1
     8    15     7    1
     9     7     8   ar
    10     8     9   ar
    11     9    10   ar
    12    10     1    1
    13     1     2   ar
    14     2     3   ar
    15     3     4   ar
    16     4    25    1
    17    25    26    2
    18    25    27   am
    19    27    29    1
    20    29    30   ar
    21    30    31   ar
    22    31    32   ar
    23    32    33   ar
    24    33    34   ar
    25    34    35    1
    26     4     5   ar
    27     5     6   ar
    28    10    11   ar
    29    11    13    1
    30    13    14    3
    31    11    12   ar
    32    19    20    1
    33    20    21    1
    34    21    16    1
    35    12     7   ar
    36     6     1   ar
    37    34    29   ar
    38    27    28    1
    39    35    36    1
    40    35    37    1
@<TRIPOS>MOLECULE
*****
 37 40 0 0 0
SMALL
GASTEIGER

@<TRIPOS>ATOM
      1 C         143.0242  138.3940  157.7444 C.ar    1  UNL1        0.0183
      2 C         142.9212  138.1087  159.2134 C.ar    1  UNL1        0.0017
      3 C         143.2393  139.1835  160.2102 C.ar    1  UNL1        0.0046
      4 C         143.6605  140.5435  159.7380 C.ar    1  UNL1        0.0537
      5 C         143.7636  140.8288  158.2691 C.ar    1  UNL1        0.0046
      6 C         143.4454  139.7541  157.2722 C.ar    1  UNL1        0.0017
      7 C         142.0699  135.1698  154.7537 C.ar    1  UNL1        0.0137
      8 C         143.4871  135.3892  155.1936 C.ar    1  UNL1        0.0959
      9 N         143.8052  136.4639  156.1904 N.ar    1  UNL1       -0.2434
     10 C         142.7061  137.3193  156.7475 C.ar    1  UNL1        0.0908
     11 C         141.2889  137.0999  156.3077 C.ar    1  UNL1        0.0858
     12 C         140.9708  136.0252  155.3108 C.ar    1  UNL1        0.0104
     13 C         140.1898  137.9553  156.8648 C.1     1  UNL1        0.1019
     14 N         139.0907  138.8107  157.4218 N.1     1  UNL1       -0.1908
     15 C         141.7518  134.0951  153.7568 C.3     1  UNL1        0.1008
     16 N         142.7908  129.8106  154.6588 N.3     1  UNL1       -0.2716
     17 C         142.0709  130.6390  155.6813 C.3     1  UNL1        0.0896
     18 C         141.7246  132.0672  155.3806 C.3     1  UNL1        0.0899
     19 N         142.0981  132.6669  154.0575 N.3     1  UNL1       -0.2665
     20 C         142.8180  131.8385  153.0350 C.3     1  UNL1        0.0899
     21 C         143.1643  130.4103  153.3357 C.3     1  UNL1        0.0896
     22 C         142.7786  127.7877  156.2890 C.3     1  UNL1        0.0173
     23 C         143.1371  128.3824  154.9595 C.3     1  UNL1        0.0577
     24 C         143.8419  127.5490  153.9306 C.3     1  UNL1        0.0173
     25 C         143.9787  141.6183  160.7349 C.2     1  UNL1        0.2495
     26 O         145.0654  142.6110  160.4463 O.2     1  UNL1       -0.2698
     27 N         143.2100  141.7002  162.0204 N.am    1  UNL1       -0.2794
     28 H         142.4967  141.0486  162.2098 H       1  UNL1        0.1552
     29 C         143.5282  142.7749  163.0172 C.ar    1  UNL1        0.0636
     30 C         144.1758  142.4192  164.3227 C.ar    1  UNL1        0.0159
     31 C         144.4940  143.4939  165.3195 C.ar    1  UNL1        0.0014
     32 C         144.1645  144.9244  165.0110 C.ar    1  UNL1        0.0013
     33 C         143.5169  145.2801  163.7056 C.ar    1  UNL1        0.0153
     34 C         143.1987  144.2054  162.7087 C.ar    1  UNL1        0.0552
     35 N         142.5511  144.5612  161.4033 N.pl3   1  UNL1       -0.3560
     36 H         142.3349  145.5000  161.2009 H       1  UNL1        0.1424
     37 H         142.3423  143.8558  160.7491 H       1  UNL1        0.1424
@<TRIPOS>BOND
     1    22    23    1
     2    23    24    1
     3    23    16    1
     4    16    17    1
     5    17    18    1
     6    18    19    1
     7    19    15    1
     8    15     7    1
     9     7     8   ar
    10     8     9   ar
    11     9    10   ar
    12    10     1    1
    13     1     2   ar
    14     2     3   ar
    15     3     4   ar
    16     4    25    1
    17    25    26    2
    18    25    27   am
    19    27    29    1
    20    29    30   ar
    21    30    31   ar
    22    31    32   ar
    23    32    33   ar
    24    33    34   ar
    25    34    35    1
    26     4     5   ar
    27     5     6   ar
    28    10    11   ar
    29    11    13    1
    30    13    14    3
    31    11    12   ar
    32    19    20    1
    33    20    21    1
    34    21    16    1
    35    12     7   ar
    36     6     1   ar
    37    34    29   ar
    38    27    28    1
    39    35    36    1
    40    35    37    1
@<TRIPOS>MOLECULE
*****
 37 40 0 0 0
SMALL
GASTEIGER

@<TRIPOS>ATOM
      1 C         142.8261  139.3710  161.9728 C.ar    1  UNL1        0.0183
      2 C         143.9540  138.9388  162.8621 C.ar    1  UNL1        0.0017
      3 C         143.8295  139.0743  164.3508 C.ar    1  UNL1        0.0046
      4 C         142.5770  139.6419  164.9501 C.ar    1  UNL1        0.0537
      5 C         141.4491  140.0741  164.0607 C.ar    1  UNL1        0.0046
      6 C         141.5736  139.9386  162.5721 C.ar    1  UNL1        0.0017
      7 C         143.1995  138.9645  157.5067 C.ar    1  UNL1        0.0137
      8 C         142.5698  137.8651  158.3099 C.ar    1  UNL1        0.0959
      9 N         142.4454  138.0007  159.7985 N.ar    1  UNL1       -0.2434
     10 C         142.9505  139.2355  160.4841 C.ar    1  UNL1        0.0908
     11 C         143.5802  140.3348  159.6810 C.ar    1  UNL1        0.0858
     12 C         143.7047  140.1993  158.1922 C.ar    1  UNL1        0.0104
     13 C         144.0854  141.5696  160.3665 C.1     1  UNL1        0.1019
     14 N         144.5906  142.8045  161.0521 N.1     1  UNL1       -0.1908
     15 C         143.3239  138.8290  156.0180 C.3     1  UNL1        0.1008
     16 N         142.4253  134.8911  154.0342 N.3     1  UNL1       -0.2716
     17 C         141.6190  136.1072  153.6867 C.3     1  UNL1        0.0896
     18 C         141.9186  137.4198  154.3480 C.3     1  UNL1        0.0899
     19 N         143.0244  137.5164  155.3568 N.3     1  UNL1       -0.2665
     20 C         143.8307  136.3002  155.7043 C.3     1  UNL1        0.0899
     21 C         143.5312  134.9876  155.0430 C.3     1  UNL1        0.0896
     22 C         141.1153  133.5093  152.2666 C.3     1  UNL1        0.0173
     23 C         142.1258  133.5785  153.3730 C.3     1  UNL1        0.0577
     24 C         142.8368  132.3349  153.8181 C.3     1  UNL1        0.0173
     25 C         142.4526  139.7774  166.4388 C.2     1  UNL1        0.2495
     26 O         143.3163  138.9480  167.3422 O.2     1  UNL1       -0.2698
     27 N         141.4644  140.7423  167.0241 N.am    1  UNL1       -0.2794
     28 H         140.8975  141.2866  166.4311 H       1  UNL1        0.1552
     29 C         141.3400  140.8777  168.5127 C.ar    1  UNL1        0.0636
     30 C         140.2860  140.1064  169.2505 C.ar    1  UNL1        0.0159
     31 C         140.1616  140.2418  170.7392 C.ar    1  UNL1        0.0014
     32 C         141.0911  141.1485  171.4901 C.ar    1  UNL1        0.0013
     33 C         142.1450  141.9198  170.7524 C.ar    1  UNL1        0.0153
     34 C         142.2695  141.7844  169.2636 C.ar    1  UNL1        0.0552
     35 N         143.3234  142.5557  168.5259 N.pl3   1  UNL1       -0.3560
     36 H         143.9335  143.1508  169.0188 H       1  UNL1        0.1424
     37 H         143.4051  142.4668  167.5488 H       1  UNL1        0.1424
@<TRIPOS>BOND
     1    22    23    1
     2    23    24    1
     3    23    16    1
     4    16    17    1
     5    17    18    1
     6    18    19    1
     7    19    15    1
     8    15     7    1
     9     7     8   ar
    10     8     9   ar
    11     9    10   ar
    12    10     1    1
    13     1     2   ar
    14     2     3   ar
    15     3     4   ar
    16     4    25    1
    17    25    26    2
    18    25    27   am
    19    27    29    1
    20    29    30   ar
    21    30    31   ar
    22    31    32   ar
    23    32    33   ar
    24    33    34   ar
    25    34    35    1
    26     4     5   ar
    27     5     6   ar
    28    10    11   ar
    29    11    13    1
    30    13    14    3
    31    11    12   ar
    32    19    20    1
    33    20    21    1
    34    21    16    1
    35    12     7   ar
    36     6     1   ar
    37    34    29   ar
    38    27    28    1
    39    35    36    1
    40    35    37    1
@<TRIPOS>MOLECULE
*****
 37 40 0 0 0
SMALL
GASTEIGER

@<TRIPOS>ATOM
      1 C         142.5419  137.6709  157.2024 C.ar    1  UNL1        0.0183
      2 C         142.2509  137.5953  158.6719 C.ar    1  UNL1        0.0017
      3 C         142.2498  138.8449  159.5016 C.ar    1  UNL1        0.0046
      4 C         142.5397  140.1702  158.8617 C.ar    1  UNL1        0.0537
      5 C         142.8308  140.2459  157.3922 C.ar    1  UNL1        0.0046
      6 C         142.8319  138.9963  156.5625 C.ar    1  UNL1        0.0017
      7 C         142.5453  133.9219  154.7133 C.ar    1  UNL1        0.0137
      8 C         143.7981  134.3587  155.4133 C.ar    1  UNL1        0.0959
      9 N         143.7969  135.6083  156.2429 N.ar    1  UNL1       -0.2434
     10 C         142.5430  136.4212  156.3727 C.ar    1  UNL1        0.0908
     11 C         141.2903  135.9846  155.6728 C.ar    1  UNL1        0.0858
     12 C         141.2914  134.7349  154.8431 C.ar    1  UNL1        0.0104
     13 C         140.0364  136.7975  155.8026 C.1     1  UNL1        0.1019
     14 N         138.7825  137.6105  155.9324 N.1     1  UNL1       -0.1908
     15 C         142.5464  132.6723  153.8837 C.3     1  UNL1        0.1008
     16 N         140.7230  128.8921  155.5069 N.3     1  UNL1       -0.2716
     17 C         139.8624  129.8957  154.7984 C.3     1  UNL1        0.0896
     18 C         140.4702  131.1558  154.2573 C.3     1  UNL1        0.0899
     19 N         141.9386  131.4122  154.4248 N.3     1  UNL1       -0.2665
     20 C         142.7992  130.4086  155.1333 C.3     1  UNL1        0.0899
     21 C         142.1914  129.1485  155.6744 C.3     1  UNL1        0.0896
     22 C         140.7986  126.8847  157.1546 C.3     1  UNL1        0.0173
     23 C         140.1152  127.6320  156.0480 C.3     1  UNL1        0.0577
     24 C         138.8240  127.1192  155.4826 C.3     1  UNL1        0.0173
     25 C         142.5386  141.4199  159.6914 C.2     1  UNL1        0.2495
     26 O         142.3550  142.7560  159.0347 O.2     1  UNL1       -0.2698
     27 N         142.7211  141.3335  161.1777 N.am    1  UNL1       -0.2794
     28 H         142.8416  140.4566  161.6087 H       1  UNL1        0.1552
     29 C         142.7200  142.5831  162.0073 C.ar    1  UNL1        0.0636
     30 C         141.4511  143.0519  162.6556 C.ar    1  UNL1        0.0159
     31 C         141.4500  144.3016  163.4852 C.ar    1  UNL1        0.0014
     32 C         142.7178  145.0825  163.6667 C.ar    1  UNL1        0.0013
     33 C         143.9866  144.6138  163.0185 C.ar    1  UNL1        0.0153
     34 C         143.9878  143.3641  162.1888 C.ar    1  UNL1        0.0552
     35 N         145.2567  142.8953  161.5406 N.pl3   1  UNL1       -0.3560
     36 H         146.0887  143.4079  161.6597 H       1  UNL1        0.1424
     37 H         145.2574  142.0751  160.9961 H       1  UNL1        0.1424
@<TRIPOS>BOND
     1    22    23    1
     2    23    24    1
     3    23    16    1
     4    16    17    1
     5    17    18    1
     6    18    19    1
     7    19    15    1
     8    15     7    1
     9     7     8   ar
    10     8     9   ar
    11     9    10   ar
    12    10     1    1
    13     1     2   ar
    14     2     3   ar
    15     3     4   ar
    16     4    25    1
    17    25    26    2
    18    25    27   am
    19    27    29    1
    20    29    30   ar
    21    30    31   ar
    22    31    32   ar
    23    32    33   ar
    24    33    34   ar
    25    34    35    1
    26     4     5   ar
    27     5     6   ar
    28    10    11   ar
    29    11    13    1
    30    13    14    3
    31    11    12   ar
    32    19    20    1
    33    20    21    1
    34    21    16    1
    35    12     7   ar
    36     6     1   ar
    37    34    29   ar
    38    27    28    1
    39    35    36    1
    40    35    37    1
@<TRIPOS>MOLECULE
*****
 37 40 0 0 0
SMALL
GASTEIGER

@<TRIPOS>ATOM
      1 C         143.0672  137.0832  155.8503 C.ar    1  UNL1        0.0183
      2 C         142.6830  136.7776  154.4329 C.ar    1  UNL1        0.0017
      3 C         142.4202  135.3610  154.0158 C.ar    1  UNL1        0.0046
      4 C         142.5416  134.2499  155.0162 C.ar    1  UNL1        0.0537
      5 C         142.9258  134.5554  156.4336 C.ar    1  UNL1        0.0046
      6 C         143.1886  135.9720  156.8506 C.ar    1  UNL1        0.0017
      7 C         143.8558  141.3332  157.1017 C.ar    1  UNL1        0.0137
      8 C         144.9608  140.5075  156.5124 C.ar    1  UNL1        0.0959
      9 N         144.6980  139.0908  156.0953 N.ar    1  UNL1       -0.2434
     10 C         143.3301  138.4999  156.2674 C.ar    1  UNL1        0.0908
     11 C         142.2250  139.3255  156.8566 C.ar    1  UNL1        0.0858
     12 C         142.4879  140.7422  157.2738 C.ar    1  UNL1        0.0104
     13 C         140.8571  138.7345  157.0287 C.1     1  UNL1        0.1019
     14 N         139.4893  138.1436  157.2008 N.1     1  UNL1       -0.1908
     15 C         144.1187  142.7498  157.5188 C.3     1  UNL1        0.1008
     16 N         141.8174  144.5519  160.9403 N.3     1  UNL1       -0.2716
     17 C         141.4890  144.9394  159.5289 C.3     1  UNL1        0.0896
     18 C         142.2561  144.3387  158.3884 C.3     1  UNL1        0.0899
     19 N         143.3516  143.3505  158.6593 N.3     1  UNL1       -0.2665
     20 C         143.6800  142.9630  160.0706 C.3     1  UNL1        0.0899
     21 C         142.9129  143.5637  161.2111 C.3     1  UNL1        0.0896
     22 C         141.6261  145.1314  163.4656 C.3     1  UNL1        0.0173
     23 C         141.0503  145.1526  162.0808 C.3     1  UNL1        0.0577
     24 C         139.7073  145.7744  161.8364 C.3     1  UNL1        0.0173
     25 C         142.2787  132.8331  154.5990 C.2     1  UNL1        0.2495
     26 O         142.6799  132.3675  153.2307 O.2     1  UNL1       -0.2698
     27 N         141.6148  131.8822  155.5502 N.am    1  UNL1       -0.2794
     28 H         141.3515  132.1878  156.4482 H       1  UNL1        0.1552
     29 C         141.3520  130.4655  155.1330 C.ar    1  UNL1        0.0636
     30 C         140.0381  130.0989  154.5089 C.ar    1  UNL1        0.0159
     31 C         139.7753  128.6823  154.0917 C.ar    1  UNL1        0.0014
     32 C         140.8263  127.6322  154.2987 C.ar    1  UNL1        0.0013
     33 C         142.1401  127.9988  154.9228 C.ar    1  UNL1        0.0153
     34 C         142.4030  129.4155  155.3400 C.ar    1  UNL1        0.0552
     35 N         143.7167  129.7820  155.9641 N.pl3   1  UNL1       -0.3560
     36 H         144.4065  129.0928  156.1000 H       1  UNL1        0.1424
     37 H         143.8892  130.7118  156.2379 H       1  UNL1        0.1424
@<TRIPOS>BOND
     1    22    23    1
     2    23    24    1
     3    23    16    1
     4    16    17    1
     5    17    18    1
     6    18    19    1
     7    19    15    1
     8    15     7    1
     9     7     8   ar
    10     8     9   ar
    11     9    10   ar
    12    10     1    1
    13     1     2   ar
    14     2     3   ar
    15     3     4   ar
    16     4    25    1
    17    25    26    2
    18    25    27   am
    19    27    29    1
    20    29    30   ar
    21    30    31   ar
    22    31    32   ar
    23    32    33   ar
    24    33    34   ar
    25    34    35    1
    26     4     5   ar
    27     5     6   ar
    28    10    11   ar
    29    11    13    1
    30    13    14    3
    31    11    12   ar
    32    19    20    1
    33    20    21    1
    34    21    16    1
    35    12     7   ar
    36     6     1   ar
    37    34    29   ar
    38    27    28    1
    39    35    36    1
    40    35    37    1
