@<TRIPOS>MOLECULE
*****
 34 38 0 0 0
SMALL
GASTEIGER

@<TRIPOS>ATOM
      1 C         138.6325  139.1673  165.6560 C.ar    1  UNL1        0.0208
      2 C         138.0601  140.2337  164.7698 C.ar    1  UNL1        0.0013
      3 C         138.0478  140.0455  163.2818 C.ar    1  UNL1       -0.0029
      4 C         138.6079  138.7908  162.6798 C.ar    1  UNL1       -0.0061
      5 C         139.1802  137.7244  163.5659 C.ar    1  UNL1       -0.0029
      6 C         139.1925  137.9127  165.0541 C.ar    1  UNL1        0.0013
      7 O         136.6901  137.6595  167.3747 O.2     1  UNL1       -0.4087
      8 N         137.6736  138.6016  168.0035 N.2     1  UNL1       -0.0864
      9 C         138.6448  139.3555  167.1440 C.2     1  UNL1        0.1192
     10 H         136.0835  137.1886  167.9116 H       1  UNL1        0.3278
     11 C         139.6283  140.2975  167.7728 C.ar    1  UNL1        0.0232
     12 C         140.7113  140.9169  166.9401 C.ar    1  UNL1        0.0041
     13 C         141.6948  141.8589  167.5688 C.ar    1  UNL1        0.0320
     14 C         141.5952  142.1817  169.0302 C.ar    1  UNL1        0.1674
     15 F         142.5787  143.1237  169.6590 F       1  UNL1       -0.2018
     16 C         140.5122  141.5623  169.8630 C.ar    1  UNL1        0.1674
     17 F         140.4126  141.8851  171.3245 F       1  UNL1       -0.2018
     18 C         139.5287  140.6203  169.2343 C.ar    1  UNL1        0.0336
     19 C         138.5955  138.6026  161.1917 C.3     1  UNL1        0.0991
     20 N         138.9810  139.7370  160.2890 N.3     1  UNL1       -0.2688
     21 C         137.9785  140.3052  159.3287 C.3     1  UNL1        0.0751
     22 C         138.3640  141.4395  158.4261 C.3     1  UNL1        0.0489
     23 C         139.7518  142.0056  158.4838 C.3     1  UNL1        0.1157
     24 C         140.7543  141.4374  159.4441 C.3     1  UNL1        0.0489
     25 C         140.3688  140.3031  160.3467 C.3     1  UNL1        0.0751
     26 O         141.0949  142.6713  158.4287 O.3     1  UNL1       -0.3496
     27 C         141.0350  143.7505  157.3885 C.3     1  UNL1        0.1687
     28 C         139.6549  143.7518  156.8008 C.ar    1  UNL1        0.0108
     29 C         139.0179  144.5955  155.7368 C.ar    1  UNL1        0.0476
     30 C         137.5879  144.3609  155.3496 C.ar    1  UNL1        0.2221
     31 F         136.9509  145.2047  154.2855 F       1  UNL1       -0.1832
     32 N         136.7948  143.2825  156.0264 N.ar    1  UNL1       -0.2167
     33 C         137.4318  142.4387  157.0905 C.ar    1  UNL1        0.0990
     34 C         138.8619  142.6734  157.4777 C.ar    1  UNL1        0.0198
@<TRIPOS>BOND
     1     7     8    1
     2     8     9    2
     3     9     1    1
     4     1     2   ar
     5     2     3   ar
     6     3     4   ar
     7     4    19    1
     8    19    20    1
     9    20    21    1
    10    21    22    1
    11    22    23    1
    12    23    24    1
    13    24    25    1
    14    23    26    1
    15    26    27    1
    16    27    28    1
    17    28    29   ar
    18    29    30   ar
    19    30    31    1
    20    30    32   ar
    21    32    33   ar
    22    33    34   ar
    23     4     5   ar
    24     5     6   ar
    25     9    11    1
    26    11    12   ar
    27    12    13   ar
    28    13    14   ar
    29    14    15    1
    30    14    16   ar
    31    16    17    1
    32    16    18   ar
    33     6     1   ar
    34    18    11   ar
    35    25    20    1
    36    34    28   ar
    37    34    23    1
    38     7    10    1
@<TRIPOS>MOLECULE
*****
 34 38 0 0 0
SMALL
GASTEIGER

@<TRIPOS>ATOM
      1 C         138.6163  139.0285  165.6252 C.ar    1  UNL1        0.0208
      2 C         139.1551  137.7587  165.0358 C.ar    1  UNL1        0.0013
      3 C         139.1483  137.5599  163.5491 C.ar    1  UNL1       -0.0029
      4 C         138.6026  138.6309  162.6516 C.ar    1  UNL1       -0.0061
      5 C         138.0637  139.9007  163.2410 C.ar    1  UNL1       -0.0029
      6 C         138.0706  140.0994  164.7279 C.ar    1  UNL1        0.0013
      7 O         136.6104  137.6002  167.3388 O.2     1  UNL1       -0.4087
      8 N         137.6202  138.5131  167.9687 N.2     1  UNL1       -0.0864
      9 C         138.6232  139.2273  167.1119 C.2     1  UNL1        0.1192
     10 H         135.9838  137.1541  167.8740 H       1  UNL1        0.3278
     11 C         139.6330  140.1402  167.7419 C.ar    1  UNL1        0.0232
     12 C         139.4674  140.5708  169.1691 C.ar    1  UNL1        0.0041
     13 C         140.4772  141.4837  169.7991 C.ar    1  UNL1        0.0320
     14 C         141.6526  141.9660  169.0018 C.ar    1  UNL1        0.1674
     15 F         142.6624  142.8790  169.6318 F       1  UNL1       -0.2018
     16 C         141.8183  141.5354  167.5745 C.ar    1  UNL1        0.1674
     17 F         142.9937  142.0177  166.7772 F       1  UNL1       -0.2018
     18 C         140.8085  140.6225  166.9445 C.ar    1  UNL1        0.0336
     19 C         138.5957  138.4321  161.1649 C.3     1  UNL1        0.0991
     20 N         139.3687  139.3646  160.2800 N.3     1  UNL1       -0.2688
     21 C         140.7813  139.0365  159.8968 C.3     1  UNL1        0.0751
     22 C         141.5542  139.9689  159.0119 C.3     1  UNL1        0.0489
     23 C         140.9145  141.2295  158.5101 C.3     1  UNL1        0.1157
     24 C         139.5019  141.5576  158.8932 C.3     1  UNL1        0.0489
     25 C         138.7290  140.6251  159.7781 C.3     1  UNL1        0.0751
     26 O         140.4102  142.5196  157.9345 O.3     1  UNL1       -0.3496
     27 C         141.5115  143.1230  157.1140 C.3     1  UNL1        0.1687
     28 C         142.6964  142.2058  157.1825 C.ar    1  UNL1        0.0108
     29 C         144.0637  142.2850  156.5708 C.ar    1  UNL1        0.0476
     30 C         145.0620  141.1940  156.8218 C.ar    1  UNL1        0.2221
     31 F         146.4292  141.2732  156.2100 F       1  UNL1       -0.1832
     32 N         144.6931  140.0237  157.6846 N.ar    1  UNL1       -0.2167
     33 C         143.3258  139.9445  158.2964 C.ar    1  UNL1        0.0990
     34 C         142.3275  141.0356  158.0453 C.ar    1  UNL1        0.0198
@<TRIPOS>BOND
     1     7     8    1
     2     8     9    2
     3     9     1    1
     4     1     2   ar
     5     2     3   ar
     6     3     4   ar
     7     4    19    1
     8    19    20    1
     9    20    21    1
    10    21    22    1
    11    22    23    1
    12    23    24    1
    13    24    25    1
    14    23    26    1
    15    26    27    1
    16    27    28    1
    17    28    29   ar
    18    29    30   ar
    19    30    31    1
    20    30    32   ar
    21    32    33   ar
    22    33    34   ar
    23     4     5   ar
    24     5     6   ar
    25     9    11    1
    26    11    12   ar
    27    12    13   ar
    28    13    14   ar
    29    14    15    1
    30    14    16   ar
    31    16    17    1
    32    16    18   ar
    33     6     1   ar
    34    18    11   ar
    35    25    20    1
    36    34    28   ar
    37    34    23    1
    38     7    10    1
@<TRIPOS>MOLECULE
*****
 34 38 0 0 0
SMALL
GASTEIGER

@<TRIPOS>ATOM
      1 C         142.2905  136.9656  157.1687 C.ar    1  UNL1        0.0208
      2 C         140.9397  137.2435  156.5786 C.ar    1  UNL1        0.0013
      3 C         139.9660  138.1172  157.3124 C.ar    1  UNL1       -0.0029
      4 C         140.3431  138.7132  158.6363 C.ar    1  UNL1       -0.0061
      5 C         141.6939  138.4354  159.2264 C.ar    1  UNL1       -0.0029
      6 C         142.6676  137.5615  158.4926 C.ar    1  UNL1        0.0013
      7 O         144.5684  138.1995  155.6559 O.2     1  UNL1       -0.4087
      8 N         144.4031  136.7088  155.6785 N.2     1  UNL1       -0.0864
      9 C         143.2641  136.0919  156.4349 C.2     1  UNL1        0.1192
     10 H         145.2799  138.5848  155.1834 H       1  UNL1        0.3278
     11 C         143.0988  134.6012  156.4575 C.ar    1  UNL1        0.0232
     12 C         142.0296  133.9525  155.6293 C.ar    1  UNL1        0.0041
     13 C         141.8643  132.4618  155.6519 C.ar    1  UNL1        0.0320
     14 C         142.7682  131.6198  156.5027 C.ar    1  UNL1        0.1674
     15 F         142.6029  130.1291  156.5253 F       1  UNL1       -0.2018
     16 C         143.8375  132.2684  157.3310 C.ar    1  UNL1        0.1674
     17 F         144.7414  131.4264  158.1818 F       1  UNL1       -0.2018
     18 C         144.0028  133.7591  157.3084 C.ar    1  UNL1        0.0336
     19 C         139.3694  139.5870  159.3701 C.3     1  UNL1        0.0991
     20 N         139.2955  139.5347  160.8674 N.3     1  UNL1       -0.2688
     21 C         139.8497  140.6631  161.6856 C.3     1  UNL1        0.0751
     22 C         139.7757  140.6108  163.1828 C.3     1  UNL1        0.0489
     23 C         139.1475  139.4301  163.8619 C.3     1  UNL1        0.1157
     24 C         138.5932  138.3016  163.0437 C.3     1  UNL1        0.0489
     25 C         138.6672  138.3540  161.5465 C.3     1  UNL1        0.0751
     26 O         138.5517  138.3207  164.6770 O.3     1  UNL1       -0.3496
     27 C         138.6923  138.6830  166.1259 C.3     1  UNL1        0.1687
     28 C         139.3750  140.0162  166.2061 C.ar    1  UNL1        0.0108
     29 C         139.7769  140.8695  167.3725 C.ar    1  UNL1        0.0476
     30 C         140.4600  142.1844  167.1398 C.ar    1  UNL1        0.2221
     31 F         140.8619  143.0376  168.3062 F       1  UNL1       -0.1832
     32 N         140.7414  142.6461  165.7406 N.ar    1  UNL1       -0.2167
     33 C         140.3395  141.7929  164.5742 C.ar    1  UNL1        0.0990
     34 C         139.6564  140.4779  164.8070 C.ar    1  UNL1        0.0198
@<TRIPOS>BOND
     1     7     8    1
     2     8     9    2
     3     9     1    1
     4     1     2   ar
     5     2     3   ar
     6     3     4   ar
     7     4    19    1
     8    19    20    1
     9    20    21    1
    10    21    22    1
    11    22    23    1
    12    23    24    1
    13    24    25    1
    14    23    26    1
    15    26    27    1
    16    27    28    1
    17    28    29   ar
    18    29    30   ar
    19    30    31    1
    20    30    32   ar
    21    32    33   ar
    22    33    34   ar
    23     4     5   ar
    24     5     6   ar
    25     9    11    1
    26    11    12   ar
    27    12    13   ar
    28    13    14   ar
    29    14    15    1
    30    14    16   ar
    31    16    17    1
    32    16    18   ar
    33     6     1   ar
    34    18    11   ar
    35    25    20    1
    36    34    28   ar
    37    34    23    1
    38     7    10    1
@<TRIPOS>MOLECULE
*****
 34 38 0 0 0
SMALL
GASTEIGER

@<TRIPOS>ATOM
      1 C         140.0066  143.1488  160.4722 C.ar    1  UNL1        0.0208
      2 C         138.9152  143.5708  161.4106 C.ar    1  UNL1        0.0013
      3 C         138.4042  142.6131  162.4458 C.ar    1  UNL1       -0.0029
      4 C         138.9846  141.2333  162.5425 C.ar    1  UNL1       -0.0061
      5 C         140.0760  140.8113  161.6041 C.ar    1  UNL1       -0.0029
      6 C         140.5870  141.7691  160.5689 C.ar    1  UNL1        0.0013
      7 O         142.3442  144.9233  161.0944 O.2     1  UNL1       -0.4087
      8 N         141.6865  144.9938  159.7481 N.2     1  UNL1       -0.0864
      9 C         140.5177  144.1065  159.4370 C.2     1  UNL1        0.1192
     10 H         143.0743  145.4775  161.2887 H       1  UNL1        0.3278
     11 C         139.8599  144.1770  158.0908 C.ar    1  UNL1        0.0232
     12 C         140.1887  145.3009  157.1534 C.ar    1  UNL1        0.0041
     13 C         139.5310  145.3714  155.8071 C.ar    1  UNL1        0.0320
     14 C         138.5445  144.3180  155.3982 C.ar    1  UNL1        0.1674
     15 F         137.8868  144.3885  154.0520 F       1  UNL1       -0.2018
     16 C         138.2157  143.1940  156.3356 C.ar    1  UNL1        0.1674
     17 F         137.2292  142.1407  155.9268 F       1  UNL1       -0.2018
     18 C         138.8734  143.1235  157.6819 C.ar    1  UNL1        0.0336
     19 C         138.4736  140.2756  163.5777 C.3     1  UNL1        0.0991
     20 N         139.0382  140.3014  164.9672 N.3     1  UNL1       -0.2688
     21 C         140.2866  141.0816  165.2550 C.3     1  UNL1        0.0751
     22 C         140.8512  141.1074  166.6444 C.3     1  UNL1        0.0489
     23 C         140.1675  140.3529  167.7460 C.3     1  UNL1        0.1157
     24 C         138.9192  139.5727  167.4581 C.3     1  UNL1        0.0489
     25 C         138.3545  139.5469  166.0687 C.3     1  UNL1        0.0751
     26 O         139.5969  139.6513  168.9427 O.3     1  UNL1       -0.3496
     27 C         140.4787  139.9496  170.1190 C.3     1  UNL1        0.1687
     28 C         141.5942  140.8357  169.6492 C.ar    1  UNL1        0.0108
     29 C         142.7602  141.4477  170.3674 C.ar    1  UNL1        0.0476
     30 C         143.7338  142.3090  169.6191 C.ar    1  UNL1        0.2221
     31 F         144.8998  142.9210  170.3373 F       1  UNL1       -0.1832
     32 N         143.5415  142.5583  168.1525 N.ar    1  UNL1       -0.2167
     33 C         142.3755  141.9462  167.4343 C.ar    1  UNL1        0.0990
     34 C         141.4018  141.0849  168.1827 C.ar    1  UNL1        0.0198
@<TRIPOS>BOND
     1     7     8    1
     2     8     9    2
     3     9     1    1
     4     1     2   ar
     5     2     3   ar
     6     3     4   ar
     7     4    19    1
     8    19    20    1
     9    20    21    1
    10    21    22    1
    11    22    23    1
    12    23    24    1
    13    24    25    1
    14    23    26    1
    15    26    27    1
    16    27    28    1
    17    28    29   ar
    18    29    30   ar
    19    30    31    1
    20    30    32   ar
    21    32    33   ar
    22    33    34   ar
    23     4     5   ar
    24     5     6   ar
    25     9    11    1
    26    11    12   ar
    27    12    13   ar
    28    13    14   ar
    29    14    15    1
    30    14    16   ar
    31    16    17    1
    32    16    18   ar
    33     6     1   ar
    34    18    11   ar
    35    25    20    1
    36    34    28   ar
    37    34    23    1
    38     7    10    1
@<TRIPOS>MOLECULE
*****
 34 38 0 0 0
SMALL
GASTEIGER

@<TRIPOS>ATOM
      1 C         139.6809  139.6928  161.6078 C.ar    1  UNL1        0.0208
      2 C         138.7820  139.5105  160.4210 C.ar    1  UNL1        0.0013
      3 C         139.3718  139.3432  159.0520 C.ar    1  UNL1       -0.0029
      4 C         140.8607  139.3583  158.8699 C.ar    1  UNL1       -0.0061
      5 C         141.7596  139.5406  160.0568 C.ar    1  UNL1       -0.0029
      6 C         141.1697  139.7079  161.4258 C.ar    1  UNL1        0.0013
      7 O         138.6783  137.2985  163.1119 O.2     1  UNL1       -0.4087
      8 N         138.5897  138.6629  163.7288 N.2     1  UNL1       -0.0864
      9 C         139.0910  139.8600  162.9768 C.2     1  UNL1        0.1192
     10 H         138.3652  136.5506  163.5817 H       1  UNL1        0.3278
     11 C         139.0024  141.2244  163.5937 C.ar    1  UNL1        0.0232
     12 C         139.6938  141.5056  164.8948 C.ar    1  UNL1        0.0041
     13 C         139.6052  142.8699  165.5117 C.ar    1  UNL1        0.0320
     14 C         138.8251  143.9532  164.8276 C.ar    1  UNL1        0.1674
     15 F         138.7365  145.3176  165.4445 F       1  UNL1       -0.2018
     16 C         138.1337  143.6721  163.5264 C.ar    1  UNL1        0.1674
     17 F         137.3536  144.7553  162.8423 F       1  UNL1       -0.2018
     18 C         138.2223  142.3077  162.9095 C.ar    1  UNL1        0.0336
     19 C         141.4506  139.1911  157.5010 C.3     1  UNL1        0.0991
     20 N         141.5944  137.8205  156.9086 N.3     1  UNL1       -0.2688
     21 C         142.5685  136.8458  157.5011 C.3     1  UNL1        0.0751
     22 C         142.7123  135.4753  156.9087 C.3     1  UNL1        0.0489
     23 C         141.8820  135.0795  155.7238 C.3     1  UNL1        0.1157
     24 C         140.9080  136.0542  155.1312 C.3     1  UNL1        0.0489
     25 C         140.7642  137.4247  155.7236 C.3     1  UNL1        0.0751
     26 O         141.1238  134.5443  154.5453 O.3     1  UNL1       -0.3496
     27 C         141.5825  133.1375  154.2990 C.3     1  UNL1        0.1687
     28 C         142.6242  132.8032  155.3253 C.ar    1  UNL1        0.0108
     29 C         143.4282  131.5611  155.5717 C.ar    1  UNL1        0.0476
     30 C         144.4171  131.5191  156.6986 C.ar    1  UNL1        0.2221
     31 F         145.2211  130.2769  156.9451 F       1  UNL1       -0.1832
     32 N         144.6023  132.7193  157.5792 N.ar    1  UNL1       -0.2167
     33 C         143.7984  133.9614  157.3328 C.ar    1  UNL1        0.0990
     34 C         142.8094  134.0034  156.2058 C.ar    1  UNL1        0.0198
@<TRIPOS>BOND
     1     7     8    1
     2     8     9    2
     3     9     1    1
     4     1     2   ar
     5     2     3   ar
     6     3     4   ar
     7     4    19    1
     8    19    20    1
     9    20    21    1
    10    21    22    1
    11    22    23    1
    12    23    24    1
    13    24    25    1
    14    23    26    1
    15    26    27    1
    16    27    28    1
    17    28    29   ar
    18    29    30   ar
    19    30    31    1
    20    30    32   ar
    21    32    33   ar
    22    33    34   ar
    23     4     5   ar
    24     5     6   ar
    25     9    11    1
    26    11    12   ar
    27    12    13   ar
    28    13    14   ar
    29    14    15    1
    30    14    16   ar
    31    16    17    1
    32    16    18   ar
    33     6     1   ar
    34    18    11   ar
    35    25    20    1
    36    34    28   ar
    37    34    23    1
    38     7    10    1
@<TRIPOS>MOLECULE
*****
 34 38 0 0 0
SMALL
GASTEIGER

@<TRIPOS>ATOM
      1 C         142.2366  137.0741  157.2063 C.ar    1  UNL1        0.0208
      2 C         142.5758  137.6236  158.5602 C.ar    1  UNL1        0.0013
      3 C         141.5904  138.4905  159.2862 C.ar    1  UNL1       -0.0029
      4 C         140.2656  138.8081  158.6584 C.ar    1  UNL1       -0.0061
      5 C         139.9263  138.2587  157.3045 C.ar    1  UNL1       -0.0029
      6 C         140.9119  137.3916  156.5784 C.ar    1  UNL1        0.0013
      7 O         144.5369  138.3219  155.7396 O.2     1  UNL1       -0.4087
      8 N         144.3723  136.8310  155.7469 N.2     1  UNL1       -0.0864
      9 C         143.2220  136.2071  156.4803 C.2     1  UNL1        0.1192
     10 H         145.2554  138.7117  155.2815 H       1  UNL1        0.3278
     11 C         143.0573  134.7162  156.4876 C.ar    1  UNL1        0.0232
     12 C         143.9787  133.8639  157.3089 C.ar    1  UNL1        0.0041
     13 C         143.8140  132.3730  157.3162 C.ar    1  UNL1        0.0320
     14 C         142.7279  131.7344  156.5022 C.ar    1  UNL1        0.1674
     15 F         142.5633  130.2435  156.5095 F       1  UNL1       -0.2018
     16 C         141.8065  132.5867  155.6809 C.ar    1  UNL1        0.1674
     17 F         140.7204  131.9481  154.8670 F       1  UNL1       -0.2018
     18 C         141.9712  134.0776  155.6736 C.ar    1  UNL1        0.0336
     19 C         139.2801  139.6751  159.3844 C.3     1  UNL1        0.0991
     20 N         139.6373  140.2620  160.7179 N.3     1  UNL1       -0.2688
     21 C         139.2106  139.5720  161.9795 C.3     1  UNL1        0.0751
     22 C         139.5677  140.1589  163.3129 C.3     1  UNL1        0.0489
     23 C         140.3515  141.4358  163.3846 C.3     1  UNL1        0.1157
     24 C         140.7782  142.1258  162.1230 C.3     1  UNL1        0.0489
     25 C         140.4211  141.5389  160.7896 C.3     1  UNL1        0.0751
     26 O         141.1269  142.6995  163.6126 O.3     1  UNL1       -0.3496
     27 C         141.2506  142.9068  165.0931 C.3     1  UNL1        0.1687
     28 C         140.5517  141.7711  165.7801 C.ar    1  UNL1        0.0108
     29 C         140.3494  141.4474  167.2307 C.ar    1  UNL1        0.0476
     30 C         139.5916  140.2146  167.6255 C.ar    1  UNL1        0.2221
     31 F         139.3894  139.8909  169.0761 F       1  UNL1       -0.1832
     32 N         139.0359  139.3055  166.5696 N.ar    1  UNL1       -0.2167
     33 C         139.2382  139.6292  165.1190 C.ar    1  UNL1        0.0990
     34 C         139.9961  140.8621  164.7243 C.ar    1  UNL1        0.0198
@<TRIPOS>BOND
     1     7     8    1
     2     8     9    2
     3     9     1    1
     4     1     2   ar
     5     2     3   ar
     6     3     4   ar
     7     4    19    1
     8    19    20    1
     9    20    21    1
    10    21    22    1
    11    22    23    1
    12    23    24    1
    13    24    25    1
    14    23    26    1
    15    26    27    1
    16    27    28    1
    17    28    29   ar
    18    29    30   ar
    19    30    31    1
    20    30    32   ar
    21    32    33   ar
    22    33    34   ar
    23     4     5   ar
    24     5     6   ar
    25     9    11    1
    26    11    12   ar
    27    12    13   ar
    28    13    14   ar
    29    14    15    1
    30    14    16   ar
    31    16    17    1
    32    16    18   ar
    33     6     1   ar
    34    18    11   ar
    35    25    20    1
    36    34    28   ar
    37    34    23    1
    38     7    10    1
@<TRIPOS>MOLECULE
*****
 34 38 0 0 0
SMALL
GASTEIGER

@<TRIPOS>ATOM
      1 C         140.6739  138.9151  160.5493 C.ar    1  UNL1        0.0208
      2 C         142.1452  139.0523  160.2916 C.ar    1  UNL1        0.0013
      3 C         142.6940  138.7918  158.9201 C.ar    1  UNL1       -0.0029
      4 C         141.7714  138.3940  157.8062 C.ar    1  UNL1       -0.0061
      5 C         140.3000  138.2569  158.0639 C.ar    1  UNL1       -0.0029
      6 C         139.7513  138.5174  159.4355 C.ar    1  UNL1        0.0013
      7 O         141.0548  136.8875  162.7273 O.2     1  UNL1       -0.4087
      8 N         140.3156  138.1618  163.0098 N.2     1  UNL1       -0.0864
      9 C         140.1252  139.1756  161.9207 C.2     1  UNL1        0.1192
     10 H         141.1738  136.2542  163.4076 H       1  UNL1        0.3278
     11 C         139.3860  140.4499  162.2032 C.ar    1  UNL1        0.0232
     12 C         138.1126  140.4185  162.9953 C.ar    1  UNL1        0.0041
     13 C         137.3734  141.6928  163.2778 C.ar    1  UNL1        0.0320
     14 C         137.9077  142.9985  162.7682 C.ar    1  UNL1        0.1674
     15 F         137.1685  144.2728  163.0507 F       1  UNL1       -0.2018
     16 C         139.1811  143.0299  161.9761 C.ar    1  UNL1        0.1674
     17 F         139.7154  144.3356  161.4666 F       1  UNL1       -0.2018
     18 C         139.9203  141.7556  161.6936 C.ar    1  UNL1        0.0336
     19 C         142.3201  138.1335  156.4348 C.3     1  UNL1        0.0991
     20 N         142.5309  136.7241  155.9665 N.3     1  UNL1       -0.2688
     21 C         143.1150  135.7038  156.8980 C.3     1  UNL1        0.0751
     22 C         143.3258  134.2945  156.4297 C.3     1  UNL1        0.0489
     23 C         142.9524  133.9055  155.0300 C.3     1  UNL1        0.1157
     24 C         142.3683  134.9258  154.0985 C.3     1  UNL1        0.0489
     25 C         142.1575  136.3351  154.5668 C.3     1  UNL1        0.0751
     26 O         142.6290  133.3719  153.6659 O.3     1  UNL1       -0.3496
     27 C         143.0003  131.9188  153.6364 C.3     1  UNL1        0.1687
     28 C         143.5532  131.5543  154.9824 C.ar    1  UNL1        0.0108
     29 C         144.0798  130.2631  155.5350 C.ar    1  UNL1        0.0476
     30 C         144.5767  130.1996  156.9488 C.ar    1  UNL1        0.2221
     31 F         145.1032  128.9084  157.5015 F       1  UNL1       -0.1832
     32 N         144.5471  131.4274  157.8102 N.ar    1  UNL1       -0.2167
     33 C         144.0205  132.7186  157.2575 C.ar    1  UNL1        0.0990
     34 C         143.5236  132.7821  155.8436 C.ar    1  UNL1        0.0198
@<TRIPOS>BOND
     1     7     8    1
     2     8     9    2
     3     9     1    1
     4     1     2   ar
     5     2     3   ar
     6     3     4   ar
     7     4    19    1
     8    19    20    1
     9    20    21    1
    10    21    22    1
    11    22    23    1
    12    23    24    1
    13    24    25    1
    14    23    26    1
    15    26    27    1
    16    27    28    1
    17    28    29   ar
    18    29    30   ar
    19    30    31    1
    20    30    32   ar
    21    32    33   ar
    22    33    34   ar
    23     4     5   ar
    24     5     6   ar
    25     9    11    1
    26    11    12   ar
    27    12    13   ar
    28    13    14   ar
    29    14    15    1
    30    14    16   ar
    31    16    17    1
    32    16    18   ar
    33     6     1   ar
    34    18    11   ar
    35    25    20    1
    36    34    28   ar
    37    34    23    1
    38     7    10    1
@<TRIPOS>MOLECULE
*****
 34 38 0 0 0
SMALL
GASTEIGER

@<TRIPOS>ATOM
      1 C         143.0166  140.0244  166.0712 C.ar    1  UNL1        0.0208
      2 C         142.7012  139.0276  164.9956 C.ar    1  UNL1        0.0013
      3 C         142.9654  139.3661  163.5584 C.ar    1  UNL1       -0.0029
      4 C         143.5452  140.7014  163.1968 C.ar    1  UNL1       -0.0061
      5 C         143.8607  141.6982  164.2723 C.ar    1  UNL1       -0.0029
      6 C         143.5964  141.3597  165.7096 C.ar    1  UNL1        0.0013
      7 O         144.2454  137.5714  167.2849 O.2     1  UNL1       -0.4087
      8 N         143.3667  138.4593  168.1152 N.2     1  UNL1       -0.0864
      9 C         142.7524  139.6859  167.5083 C.2     1  UNL1        0.1192
     10 H         144.6292  136.8052  167.6640 H       1  UNL1        0.3278
     11 C         141.8737  140.5738  168.3387 C.ar    1  UNL1        0.0232
     12 C         142.3404  141.9480  168.7179 C.ar    1  UNL1        0.0041
     13 C         141.4617  142.8359  169.5483 C.ar    1  UNL1        0.0320
     14 C         140.1164  142.3497  169.9994 C.ar    1  UNL1        0.1674
     15 F         139.2377  143.2377  170.8298 F       1  UNL1       -0.2018
     16 C         139.6496  140.9755  169.6202 C.ar    1  UNL1        0.1674
     17 F         138.3043  140.4893  170.0714 F       1  UNL1       -0.2018
     18 C         140.5283  140.0875  168.7899 C.ar    1  UNL1        0.0336
     19 C         143.8095  141.0399  161.7596 C.3     1  UNL1        0.0991
     20 N         142.9344  140.4715  160.6820 N.3     1  UNL1       -0.2688
     21 C         143.3433  139.2178  159.9672 C.3     1  UNL1        0.0751
     22 C         142.4682  138.6495  158.8896 C.3     1  UNL1        0.0489
     23 C         141.1842  139.3349  158.5269 C.3     1  UNL1        0.1157
     24 C         140.7753  140.5885  159.2417 C.3     1  UNL1        0.0489
     25 C         141.6504  141.1569  160.3192 C.3     1  UNL1        0.0751
     26 O         139.8791  139.9065  158.0579 O.3     1  UNL1       -0.3496
     27 C         139.3488  139.0200  156.9702 C.3     1  UNL1        0.1687
     28 C         140.3263  137.9004  156.7670 C.ar    1  UNL1        0.0108
     29 C         140.3300  136.7289  155.8302 C.ar    1  UNL1        0.0476
     30 C         141.4680  135.7521  155.8554 C.ar    1  UNL1        0.2221
     31 F         141.4717  134.5806  154.9186 F       1  UNL1       -0.1832
     32 N         142.6023  135.9467  156.8174 N.ar    1  UNL1       -0.2167
     33 C         142.5986  137.1181  157.7542 C.ar    1  UNL1        0.0990
     34 C         141.4606  138.0950  157.7290 C.ar    1  UNL1        0.0198
@<TRIPOS>BOND
     1     7     8    1
     2     8     9    2
     3     9     1    1
     4     1     2   ar
     5     2     3   ar
     6     3     4   ar
     7     4    19    1
     8    19    20    1
     9    20    21    1
    10    21    22    1
    11    22    23    1
    12    23    24    1
    13    24    25    1
    14    23    26    1
    15    26    27    1
    16    27    28    1
    17    28    29   ar
    18    29    30   ar
    19    30    31    1
    20    30    32   ar
    21    32    33   ar
    22    33    34   ar
    23     4     5   ar
    24     5     6   ar
    25     9    11    1
    26    11    12   ar
    27    12    13   ar
    28    13    14   ar
    29    14    15    1
    30    14    16   ar
    31    16    17    1
    32    16    18   ar
    33     6     1   ar
    34    18    11   ar
    35    25    20    1
    36    34    28   ar
    37    34    23    1
    38     7    10    1
@<TRIPOS>MOLECULE
*****
 34 38 0 0 0
SMALL
GASTEIGER

@<TRIPOS>ATOM
      1 C         140.9016  139.7453  160.0931 C.ar    1  UNL1        0.0208
      2 C         139.9465  139.2154  159.0650 C.ar    1  UNL1        0.0013
      3 C         140.4705  138.5530  157.8255 C.ar    1  UNL1       -0.0029
      4 C         141.9497  138.4204  157.6140 C.ar    1  UNL1       -0.0061
      5 C         142.9047  138.9503  158.6421 C.ar    1  UNL1       -0.0029
      6 C         142.3807  139.6128  159.8817 C.ar    1  UNL1        0.0013
      7 O         140.8320  142.7388  160.2790 O.2     1  UNL1       -0.4087
      8 N         140.3428  141.9046  161.4256 N.2     1  UNL1       -0.0864
      9 C         140.3776  140.4078  161.3327 C.2     1  UNL1        0.1192
     10 H         140.8102  143.6737  160.3370 H       1  UNL1        0.3278
     11 C         139.8884  139.5736  162.4793 C.ar    1  UNL1        0.0232
     12 C         140.2496  138.1198  162.5568 C.ar    1  UNL1        0.0041
     13 C         139.7604  137.2856  163.7035 C.ar    1  UNL1        0.0320
     14 C         138.9101  137.9052  164.7726 C.ar    1  UNL1        0.1674
     15 F         138.4209  137.0710  165.9192 F       1  UNL1       -0.2018
     16 C         138.5489  139.3590  164.6951 C.ar    1  UNL1        0.1674
     17 F         137.6986  139.9786  165.7642 F       1  UNL1       -0.2018
     18 C         139.0381  140.1932  163.5485 C.ar    1  UNL1        0.0336
     19 C         142.4736  137.7579  156.3744 C.3     1  UNL1        0.0991
     20 N         142.3888  136.2675  156.2275 N.3     1  UNL1       -0.2688
     21 C         143.3552  135.3853  156.9607 C.3     1  UNL1        0.0751
     22 C         143.2703  133.8950  156.8137 C.3     1  UNL1        0.0489
     23 C         142.2189  133.2868  155.9335 C.3     1  UNL1        0.1157
     24 C         141.2525  134.1690  155.2003 C.3     1  UNL1        0.0489
     25 C         141.3374  135.6593  155.3473 C.3     1  UNL1        0.0751
     26 O         141.2265  132.5388  155.0935 O.3     1  UNL1       -0.3496
     27 C         141.5057  131.0724  155.2416 C.3     1  UNL1        0.1687
     28 C         142.6708  130.9142  156.1732 C.ar    1  UNL1        0.0108
     29 C         143.3872  129.7008  156.6873 C.ar    1  UNL1        0.0476
     30 C         144.5443  129.8559  157.6290 C.ar    1  UNL1        0.2221
     31 F         145.2608  128.6425  158.1431 F       1  UNL1       -0.1832
     32 N         144.9851  131.2244  158.0566 N.ar    1  UNL1       -0.2167
     33 C         144.2687  132.4378  157.5425 C.ar    1  UNL1        0.0990
     34 C         143.1115  132.2827  156.6008 C.ar    1  UNL1        0.0198
@<TRIPOS>BOND
     1     7     8    1
     2     8     9    2
     3     9     1    1
     4     1     2   ar
     5     2     3   ar
     6     3     4   ar
     7     4    19    1
     8    19    20    1
     9    20    21    1
    10    21    22    1
    11    22    23    1
    12    23    24    1
    13    24    25    1
    14    23    26    1
    15    26    27    1
    16    27    28    1
    17    28    29   ar
    18    29    30   ar
    19    30    31    1
    20    30    32   ar
    21    32    33   ar
    22    33    34   ar
    23     4     5   ar
    24     5     6   ar
    25     9    11    1
    26    11    12   ar
    27    12    13   ar
    28    13    14   ar
    29    14    15    1
    30    14    16   ar
    31    16    17    1
    32    16    18   ar
    33     6     1   ar
    34    18    11   ar
    35    25    20    1
    36    34    28   ar
    37    34    23    1
    38     7    10    1
