@<TRIPOS>MOLECULE
*****
 31 35 0 0 0
SMALL
GASTEIGER

@<TRIPOS>ATOM
      1 C         142.7811  144.2913  163.5217 C.3     1  UNL1        0.0731
      2 N         142.8671  142.9627  164.2128 N.3     1  UNL1       -0.2712
      3 C         143.4785  141.7140  163.6498 C.3     1  UNL1        0.0738
      4 C         143.3461  140.6292  164.6772 C.3     1  UNL1        0.0372
      5 C         143.6421  139.1870  164.9643 C.3     1  UNL1        0.0245
      6 C         143.1320  138.8739  166.3397 C.3     1  UNL1        0.0909
      7 N         142.5206  140.1227  166.9027 N.pl3   1  UNL1       -0.3076
      8 C         142.6530  141.2075  165.8752 C.3     1  UNL1        0.0901
      9 C         142.3569  142.6497  165.5882 C.3     1  UNL1        0.0921
     10 C         141.8880  140.2621  168.2556 C.ar    1  UNL1        0.0501
     11 C         142.7456  140.4920  169.4645 C.ar    1  UNL1        0.0147
     12 C         142.1130  140.6314  170.8174 C.ar    1  UNL1        0.0036
     13 C         140.6227  140.5410  170.9614 C.ar    1  UNL1        0.0297
     14 C         139.7649  140.3111  169.7524 C.ar    1  UNL1        0.1414
     15 F         138.2746  140.2207  169.8964 F       1  UNL1       -0.2041
     16 C         140.3976  140.1717  168.3995 C.ar    1  UNL1        0.0441
     17 C         141.6187  145.2012  163.7879 C.3     1  UNL1        0.0294
     18 C         140.7516  145.6619  162.6538 C.3     1  UNL1        0.0666
     19 S         139.5513  144.8568  162.2525 S.3     1  UNL1       -0.0756
     20 C         138.9452  141.3652  163.8359 C.ar    1  UNL1        0.2029
     21 N         138.1332  142.2403  164.7441 N.ar    1  UNL1       -0.1250
     22 N         138.2614  143.6548  164.2615 N.ar    1  UNL1       -0.1220
     23 C         139.1527  143.6539  163.0550 C.ar    1  UNL1        0.1933
     24 N         139.5753  142.2389  162.7920 N.ar    1  UNL1       -0.2860
     25 C         140.4708  141.7784  161.6802 C.3     1  UNL1        0.1341
     26 C         137.7973  139.1483  161.7342 C.3     1  UNL1        0.0556
     27 C         138.5724  138.8587  162.9853 C.ar    1  UNL1        0.1001
     28 N         138.9559  137.4993  163.4901 N.ar    1  UNL1       -0.2085
     29 C         139.7206  137.6780  164.7681 C.ar    1  UNL1        0.2849
     30 O         139.8097  139.1480  165.0532 O.2     1  UNL1       -0.4283
     31 C         139.1000  139.8777  163.9514 C.ar    1  UNL1        0.1964
@<TRIPOS>BOND
     1    26    27    1
     2    27    28   ar
     3    28    29   ar
     4    29    30   ar
     5    30    31   ar
     6    31    20    1
     7    20    21   ar
     8    21    22   ar
     9    22    23   ar
    10    23    19    1
    11    19    18    1
    12    18    17    1
    13    17     1    1
    14     1     2    1
    15     2     3    1
    16     3     4    1
    17     4     5    1
    18     5     6    1
    19     6     7    1
    20     7    10    1
    21    10    11   ar
    22    11    12   ar
    23    12    13   ar
    24    13    14   ar
    25    14    15    1
    26    14    16   ar
    27     7     8    1
    28     8     9    1
    29    23    24   ar
    30    24    25    1
    31    31    27   ar
    32    24    20   ar
    33     9     2    1
    34     8     4    1
    35    16    10   ar
@<TRIPOS>MOLECULE
*****
 31 35 0 0 0
SMALL
GASTEIGER

@<TRIPOS>ATOM
      1 C         142.8333  137.6441  162.0498 C.3     1  UNL1        0.0731
      2 N         141.6947  138.0913  162.9179 N.3     1  UNL1       -0.2712
      3 C         141.0110  137.2679  163.9689 C.3     1  UNL1        0.0738
      4 C         139.9338  138.1083  164.5879 C.3     1  UNL1        0.0372
      5 C         138.8454  138.1187  165.6201 C.3     1  UNL1        0.0245
      6 C         138.1906  139.4679  165.5897 C.3     1  UNL1        0.0909
      7 N         138.8744  140.2914  164.5387 N.pl3   1  UNL1       -0.3076
      8 C         139.9516  139.4510  163.9196 C.3     1  UNL1        0.0901
      9 C         141.0400  139.4406  162.8875 C.3     1  UNL1        0.0921
     10 C         138.5396  141.7066  164.1713 C.ar    1  UNL1        0.0501
     11 C         138.0315  142.0244  162.7963 C.ar    1  UNL1        0.0147
     12 C         137.6967  143.4397  162.4289 C.ar    1  UNL1        0.0036
     13 C         137.8699  144.5371  163.4366 C.ar    1  UNL1        0.0297
     14 C         138.3780  144.2194  164.8117 C.ar    1  UNL1        0.1414
     15 F         138.5513  145.3168  165.8194 F       1  UNL1       -0.2041
     16 C         138.7128  142.8041  165.1791 C.ar    1  UNL1        0.0441
     17 C         144.0423  138.5174  161.8896 C.3     1  UNL1        0.0294
     18 C         144.1910  139.7535  162.7263 C.3     1  UNL1        0.0666
     19 S         144.9188  139.6893  164.0363 S.3     1  UNL1       -0.0756
     20 C         142.6433  139.7511  167.1802 C.ar    1  UNL1        0.2029
     21 N         143.3262  138.4254  167.3426 N.ar    1  UNL1       -0.1250
     22 N         144.2617  138.2409  166.1846 N.ar    1  UNL1       -0.1220
     23 C         144.1570  139.4525  165.3066 C.ar    1  UNL1        0.1933
     24 N         143.1569  140.3859  165.9219 N.ar    1  UNL1       -0.2860
     25 C         142.7429  141.7198  165.3749 C.3     1  UNL1        0.1341
     26 C         143.0372  142.4228  169.0123 C.3     1  UNL1        0.0556
     27 C         141.8068  141.5668  168.9546 C.ar    1  UNL1        0.1001
     28 N         140.5413  141.7885  169.7289 N.ar    1  UNL1       -0.2085
     29 C         139.5782  140.6975  169.3653 C.ar    1  UNL1        0.2849
     30 O         140.2484  139.8015  168.3663 O.2     1  UNL1       -0.4283
     31 C         141.6257  140.3387  168.1125 C.ar    1  UNL1        0.1964
@<TRIPOS>BOND
     1    26    27    1
     2    27    28   ar
     3    28    29   ar
     4    29    30   ar
     5    30    31   ar
     6    31    20    1
     7    20    21   ar
     8    21    22   ar
     9    22    23   ar
    10    23    19    1
    11    19    18    1
    12    18    17    1
    13    17     1    1
    14     1     2    1
    15     2     3    1
    16     3     4    1
    17     4     5    1
    18     5     6    1
    19     6     7    1
    20     7    10    1
    21    10    11   ar
    22    11    12   ar
    23    12    13   ar
    24    13    14   ar
    25    14    15    1
    26    14    16   ar
    27     7     8    1
    28     8     9    1
    29    23    24   ar
    30    24    25    1
    31    31    27   ar
    32    24    20   ar
    33     9     2    1
    34     8     4    1
    35    16    10   ar
@<TRIPOS>MOLECULE
*****
 31 35 0 0 0
SMALL
GASTEIGER

@<TRIPOS>ATOM
      1 C         138.5494  138.0003  162.8168 C.3     1  UNL1        0.0731
      2 N         139.6219  138.2530  163.8346 N.3     1  UNL1       -0.2712
      3 C         141.0277  137.7323  163.7820 C.3     1  UNL1        0.0738
      4 C         141.7515  138.2284  164.9985 C.3     1  UNL1        0.0372
      5 C         143.0677  138.2131  165.7179 C.3     1  UNL1        0.0245
      6 C         142.9228  139.0311  166.9669 C.3     1  UNL1        0.0909
      7 N         141.5170  139.5518  167.0195 N.pl3   1  UNL1       -0.3076
      8 C         140.7932  139.0557  165.8029 C.3     1  UNL1        0.0901
      9 C         139.4770  139.0710  165.0836 C.3     1  UNL1        0.0921
     10 C         140.9370  140.4168  168.0990 C.ar    1  UNL1        0.0501
     11 C         139.6856  139.9925  168.8087 C.ar    1  UNL1        0.0147
     12 C         139.1055  140.8575  169.8883 C.ar    1  UNL1        0.0036
     13 C         139.7770  142.1468  170.2581 C.ar    1  UNL1        0.0297
     14 C         141.0285  142.5712  169.5483 C.ar    1  UNL1        0.1414
     15 F         141.6999  143.8605  169.9181 F       1  UNL1       -0.2041
     16 C         141.6085  141.7062  168.4688 C.ar    1  UNL1        0.0441
     17 C         138.6545  138.6083  161.4497 C.3     1  UNL1        0.0294
     18 C         137.6375  139.6130  160.9954 C.3     1  UNL1        0.0666
     19 S         137.9399  141.0795  161.0851 S.3     1  UNL1       -0.0756
     20 C         140.4710  142.3907  163.7195 C.ar    1  UNL1        0.2029
     21 N         139.1788  142.5173  164.4708 N.ar    1  UNL1       -0.1250
     22 N         138.0734  142.0415  163.5754 N.ar    1  UNL1       -0.1220
     23 C         138.6824  141.6209  162.2707 C.ar    1  UNL1        0.1933
     24 N         140.1641  141.8366  162.3597 N.ar    1  UNL1       -0.2860
     25 C         141.1635  141.5489  161.2788 C.3     1  UNL1        0.1341
     26 C         141.8933  145.3184  163.4843 C.3     1  UNL1        0.0556
     27 C         142.4848  144.1000  164.1290 C.ar    1  UNL1        0.1001
     28 N         143.8340  144.0134  164.7787 N.ar    1  UNL1       -0.2085
     29 C         144.0141  142.6141  165.2884 C.ar    1  UNL1        0.2849
     30 O         142.7762  141.8360  164.9537 O.2     1  UNL1       -0.4283
     31 C         141.8311  142.7543  164.2371 C.ar    1  UNL1        0.1964
@<TRIPOS>BOND
     1    26    27    1
     2    27    28   ar
     3    28    29   ar
     4    29    30   ar
     5    30    31   ar
     6    31    20    1
     7    20    21   ar
     8    21    22   ar
     9    22    23   ar
    10    23    19    1
    11    19    18    1
    12    18    17    1
    13    17     1    1
    14     1     2    1
    15     2     3    1
    16     3     4    1
    17     4     5    1
    18     5     6    1
    19     6     7    1
    20     7    10    1
    21    10    11   ar
    22    11    12   ar
    23    12    13   ar
    24    13    14   ar
    25    14    15    1
    26    14    16   ar
    27     7     8    1
    28     8     9    1
    29    23    24   ar
    30    24    25    1
    31    31    27   ar
    32    24    20   ar
    33     9     2    1
    34     8     4    1
    35    16    10   ar
@<TRIPOS>MOLECULE
*****
 31 35 0 0 0
SMALL
GASTEIGER

@<TRIPOS>ATOM
      1 C         142.2503  137.8813  161.2139 C.3     1  UNL1        0.0731
      2 N         141.2982  138.2060  162.3266 N.3     1  UNL1       -0.2712
      3 C         140.6088  137.2132  163.2149 C.3     1  UNL1        0.0738
      4 C         139.7529  137.9742  164.1837 C.3     1  UNL1        0.0372
      5 C         138.7979  137.8309  165.3314 C.3     1  UNL1        0.0245
      6 C         138.3681  139.2053  165.7512 C.3     1  UNL1        0.0909
      7 N         139.0576  140.1981  164.8629 N.pl3   1  UNL1       -0.3076
      8 C         139.9134  139.4372  163.8941 C.3     1  UNL1        0.0901
      9 C         140.8685  139.5805  162.7464 C.3     1  UNL1        0.0921
     10 C         138.9160  141.6898  164.9313 C.ar    1  UNL1        0.0501
     11 C         139.5837  142.4567  166.0340 C.ar    1  UNL1        0.0147
     12 C         139.4422  143.9485  166.1025 C.ar    1  UNL1        0.0036
     13 C         138.6330  144.6733  165.0682 C.ar    1  UNL1        0.0297
     14 C         137.9652  143.9064  163.9654 C.ar    1  UNL1        0.1414
     15 F         137.1560  144.6313  162.9312 F       1  UNL1       -0.2041
     16 C         138.1068  142.4147  163.8970 C.ar    1  UNL1        0.0441
     17 C         143.5923  138.5489  161.1563 C.3     1  UNL1        0.0294
     18 C         143.7179  139.9332  160.5925 C.3     1  UNL1        0.0666
     19 S         144.4243  141.0005  161.3747 S.3     1  UNL1       -0.0756
     20 C         143.2195  141.9052  164.9519 C.ar    1  UNL1        0.2029
     21 N         142.4605  142.9037  164.1291 N.ar    1  UNL1       -0.1250
     22 N         142.8195  142.6864  162.6890 N.ar    1  UNL1       -0.1220
     23 C         143.8003  141.5535  162.6217 C.ar    1  UNL1        0.1933
     24 N         144.0476  141.0707  164.0201 N.ar    1  UNL1       -0.2860
     25 C         144.9623  139.9501  164.4173 C.3     1  UNL1        0.1341
     26 C         142.1614  139.2911  166.5939 C.3     1  UNL1        0.0556
     27 C         142.6745  140.5641  167.1989 C.ar    1  UNL1        0.1001
     28 N         142.7912  140.8591  168.6650 N.ar    1  UNL1       -0.2085
     29 C         143.3498  142.2430  168.8163 C.ar    1  UNL1        0.2849
     30 O         143.5782  142.8033  167.4438 O.2     1  UNL1       -0.4283
     31 C         143.1608  141.7657  166.4442 C.ar    1  UNL1        0.1964
@<TRIPOS>BOND
     1    26    27    1
     2    27    28   ar
     3    28    29   ar
     4    29    30   ar
     5    30    31   ar
     6    31    20    1
     7    20    21   ar
     8    21    22   ar
     9    22    23   ar
    10    23    19    1
    11    19    18    1
    12    18    17    1
    13    17     1    1
    14     1     2    1
    15     2     3    1
    16     3     4    1
    17     4     5    1
    18     5     6    1
    19     6     7    1
    20     7    10    1
    21    10    11   ar
    22    11    12   ar
    23    12    13   ar
    24    13    14   ar
    25    14    15    1
    26    14    16   ar
    27     7     8    1
    28     8     9    1
    29    23    24   ar
    30    24    25    1
    31    31    27   ar
    32    24    20   ar
    33     9     2    1
    34     8     4    1
    35    16    10   ar
@<TRIPOS>MOLECULE
*****
 31 35 0 0 0
SMALL
GASTEIGER

@<TRIPOS>ATOM
      1 C         142.9900  143.8484  162.6174 C.3     1  UNL1        0.0731
      2 N         142.9056  142.7525  163.6381 N.3     1  UNL1       -0.2712
      3 C         143.5372  141.3963  163.5298 C.3     1  UNL1        0.0738
      4 C         143.1968  140.6260  164.7711 C.3     1  UNL1        0.0372
      5 C         143.3767  139.3118  165.4713 C.3     1  UNL1        0.0245
      6 C         142.6459  139.3796  166.7796 C.3     1  UNL1        0.0909
      7 N         142.0144  140.7359  166.8878 N.pl3   1  UNL1       -0.3076
      8 C         142.3548  141.5062  165.6465 C.3     1  UNL1        0.0901
      9 C         142.1749  142.8205  164.9463 C.3     1  UNL1        0.0921
     10 C         141.1875  141.2344  168.0358 C.ar    1  UNL1        0.0501
     11 C         140.3120  140.2842  168.7978 C.ar    1  UNL1        0.0147
     12 C         139.4852  140.7826  169.9458 C.ar    1  UNL1        0.0036
     13 C         139.5339  142.2313  170.3318 C.ar    1  UNL1        0.0297
     14 C         140.4094  143.1815  169.5698 C.ar    1  UNL1        0.1414
     15 F         140.4580  144.6302  169.9559 F       1  UNL1       -0.2041
     16 C         141.2362  142.6831  168.4219 C.ar    1  UNL1        0.0441
     17 C         141.7750  144.6658  162.2924 C.3     1  UNL1        0.0294
     18 C         141.3871  144.8970  160.8620 C.3     1  UNL1        0.0666
     19 S         140.1272  144.2903  160.3192 S.3     1  UNL1       -0.0756
     20 C         138.6748  141.2940  162.3138 C.ar    1  UNL1        0.2029
     21 N         137.6159  142.3325  162.5385 N.ar    1  UNL1       -0.1250
     22 N         138.0311  143.5812  161.8187 N.ar    1  UNL1       -0.1220
     23 C         139.3466  143.3146  161.1491 C.ar    1  UNL1        0.1933
     24 N         139.7445  141.9011  161.4550 N.ar    1  UNL1       -0.2860
     25 C         140.9928  141.2150  160.9849 C.3     1  UNL1        0.1341
     26 C         138.5397  140.4531  165.4641 C.3     1  UNL1        0.0556
     27 C         138.6035  139.5078  164.3011 C.ar    1  UNL1        0.1001
     28 N         138.6165  138.0101  164.3820 N.ar    1  UNL1       -0.2085
     29 C         138.6866  137.4709  162.9840 C.ar    1  UNL1        0.2849
     30 O         138.7170  138.6355  162.0391 O.2     1  UNL1       -0.4283
     31 C         138.6656  139.8943  162.8531 C.ar    1  UNL1        0.1964
@<TRIPOS>BOND
     1    26    27    1
     2    27    28   ar
     3    28    29   ar
     4    29    30   ar
     5    30    31   ar
     6    31    20    1
     7    20    21   ar
     8    21    22   ar
     9    22    23   ar
    10    23    19    1
    11    19    18    1
    12    18    17    1
    13    17     1    1
    14     1     2    1
    15     2     3    1
    16     3     4    1
    17     4     5    1
    18     5     6    1
    19     6     7    1
    20     7    10    1
    21    10    11   ar
    22    11    12   ar
    23    12    13   ar
    24    13    14   ar
    25    14    15    1
    26    14    16   ar
    27     7     8    1
    28     8     9    1
    29    23    24   ar
    30    24    25    1
    31    31    27   ar
    32    24    20   ar
    33     9     2    1
    34     8     4    1
    35    16    10   ar
@<TRIPOS>MOLECULE
*****
 31 35 0 0 0
SMALL
GASTEIGER

@<TRIPOS>ATOM
      1 C         141.6616  137.7718  163.1434 C.3     1  UNL1        0.0731
      2 N         142.3661  139.0794  162.9343 N.3     1  UNL1       -0.2712
      3 C         143.8493  139.2987  162.9784 C.3     1  UNL1        0.0738
      4 C         144.1110  140.7522  162.7157 C.3     1  UNL1        0.0372
      5 C         145.1894  141.7860  162.5806 C.3     1  UNL1        0.0245
      6 C         144.5344  143.1040  162.2907 C.3     1  UNL1        0.0909
      7 N         143.0511  142.8846  162.2466 N.pl3   1  UNL1       -0.3076
      8 C         142.7895  141.4311  162.5092 C.3     1  UNL1        0.0901
      9 C         141.7111  140.3973  162.6443 C.3     1  UNL1        0.0921
     10 C         142.0120  143.9344  161.9856 C.ar    1  UNL1        0.0501
     11 C         141.3007  144.5873  163.1335 C.ar    1  UNL1        0.0147
     12 C         140.2615  145.6371  162.8725 C.ar    1  UNL1        0.0036
     13 C         139.9337  146.0340  161.4636 C.ar    1  UNL1        0.0297
     14 C         140.6451  145.3811  160.3156 C.ar    1  UNL1        0.1414
     15 F         140.3172  145.7780  158.9068 F       1  UNL1       -0.2041
     16 C         141.6842  144.3313  160.5766 C.ar    1  UNL1        0.0441
     17 C         140.2071  137.6404  162.8011 C.3     1  UNL1        0.0294
     18 C         139.1775  137.6331  163.8920 C.3     1  UNL1        0.0666
     19 S         138.6709  138.9284  164.4537 S.3     1  UNL1       -0.0756
     20 C         139.3048  139.9093  168.1553 C.ar    1  UNL1        0.2029
     21 N         138.0502  139.0967  168.2815 N.ar    1  UNL1       -0.1250
     22 N         137.6601  138.6304  166.9102 N.ar    1  UNL1       -0.1220
     23 C         138.6735  139.1547  165.9365 C.ar    1  UNL1        0.1933
     24 N         139.6900  139.9451  166.7060 N.ar    1  UNL1       -0.2860
     25 C         140.8823  140.6480  166.1277 C.3     1  UNL1        0.1341
     26 C         142.3021  139.1420  169.1929 C.3     1  UNL1        0.0556
     27 C         141.4220  140.2173  169.7577 C.ar    1  UNL1        0.1001
     28 N         141.7649  141.1287  170.8986 N.ar    1  UNL1       -0.2085
     29 C         140.5992  142.0448  171.1267 C.ar    1  UNL1        0.2849
     30 O         139.5358  141.6994  170.1269 O.2     1  UNL1       -0.4283
     31 C         140.0442  140.5700  169.2808 C.ar    1  UNL1        0.1964
@<TRIPOS>BOND
     1    26    27    1
     2    27    28   ar
     3    28    29   ar
     4    29    30   ar
     5    30    31   ar
     6    31    20    1
     7    20    21   ar
     8    21    22   ar
     9    22    23   ar
    10    23    19    1
    11    19    18    1
    12    18    17    1
    13    17     1    1
    14     1     2    1
    15     2     3    1
    16     3     4    1
    17     4     5    1
    18     5     6    1
    19     6     7    1
    20     7    10    1
    21    10    11   ar
    22    11    12   ar
    23    12    13   ar
    24    13    14   ar
    25    14    15    1
    26    14    16   ar
    27     7     8    1
    28     8     9    1
    29    23    24   ar
    30    24    25    1
    31    31    27   ar
    32    24    20   ar
    33     9     2    1
    34     8     4    1
    35    16    10   ar
@<TRIPOS>MOLECULE
*****
 31 35 0 0 0
SMALL
GASTEIGER

@<TRIPOS>ATOM
      1 C         144.0407  139.8414  160.6858 C.3     1  UNL1        0.0731
      2 N         143.7060  141.1315  161.3740 N.3     1  UNL1       -0.2712
      3 C         144.6439  142.2804  161.5981 C.3     1  UNL1        0.0738
      4 C         143.8921  143.3581  162.3215 C.3     1  UNL1        0.0372
      5 C         144.0071  144.7343  162.9071 C.3     1  UNL1        0.0245
      6 C         142.6757  145.1019  163.4922 C.3     1  UNL1        0.0909
      7 N         141.7378  143.9529  163.2681 N.pl3   1  UNL1       -0.3076
      8 C         142.4896  142.8752  162.5446 C.3     1  UNL1        0.0901
      9 C         142.3745  141.4990  161.9590 C.3     1  UNL1        0.0921
     10 C         140.3005  143.8922  163.6929 C.ar    1  UNL1        0.0501
     11 C         139.7987  144.8035  164.7735 C.ar    1  UNL1        0.0147
     12 C         138.3614  144.7429  165.1983 C.ar    1  UNL1        0.0036
     13 C         137.4259  143.7710  164.5425 C.ar    1  UNL1        0.0297
     14 C         137.9276  142.8596  163.4619 C.ar    1  UNL1        0.1414
     15 F         136.9921  141.8877  162.8061 F       1  UNL1       -0.2041
     16 C         139.3649  142.9203  163.0370 C.ar    1  UNL1        0.0441
     17 C         144.0903  138.5638  161.4702 C.3     1  UNL1        0.0294
     18 C         144.0846  138.6035  162.9697 C.3     1  UNL1        0.0666
     19 S         142.8076  138.3700  163.7212 S.3     1  UNL1       -0.0756
     20 C         142.0021  139.4900  167.3492 C.ar    1  UNL1        0.2029
     21 N         143.2675  138.7127  167.5600 N.ar    1  UNL1       -0.1250
     22 N         143.7233  138.1985  166.2266 N.ar    1  UNL1       -0.1220
     23 C         142.7395  138.6581  165.1917 C.ar    1  UNL1        0.1933
     24 N         141.6757  139.4562  165.8855 N.ar    1  UNL1       -0.2860
     25 C         140.4933  140.1065  165.2306 C.3     1  UNL1        0.1341
     26 C         142.9673  142.0659  169.1050 C.3     1  UNL1        0.0556
     27 C         141.6469  141.3639  169.2220 C.ar    1  UNL1        0.1001
     28 N         140.5383  141.7226  170.1666 N.ar    1  UNL1       -0.2085
     29 C         139.4094  140.7604  169.9434 C.ar    1  UNL1        0.2849
     30 O         139.8204  139.8069  168.8608 O.2     1  UNL1       -0.4283
     31 C         141.2032  140.1799  168.4150 C.ar    1  UNL1        0.1964
@<TRIPOS>BOND
     1    26    27    1
     2    27    28   ar
     3    28    29   ar
     4    29    30   ar
     5    30    31   ar
     6    31    20    1
     7    20    21   ar
     8    21    22   ar
     9    22    23   ar
    10    23    19    1
    11    19    18    1
    12    18    17    1
    13    17     1    1
    14     1     2    1
    15     2     3    1
    16     3     4    1
    17     4     5    1
    18     5     6    1
    19     6     7    1
    20     7    10    1
    21    10    11   ar
    22    11    12   ar
    23    12    13   ar
    24    13    14   ar
    25    14    15    1
    26    14    16   ar
    27     7     8    1
    28     8     9    1
    29    23    24   ar
    30    24    25    1
    31    31    27   ar
    32    24    20   ar
    33     9     2    1
    34     8     4    1
    35    16    10   ar
@<TRIPOS>MOLECULE
*****
 31 35 0 0 0
SMALL
GASTEIGER

@<TRIPOS>ATOM
      1 C         138.3259  138.7453  166.0622 C.3     1  UNL1        0.0731
      2 N         139.4721  139.6045  166.5073 N.3     1  UNL1       -0.2712
      3 C         139.7812  139.9990  167.9211 C.3     1  UNL1        0.0738
      4 C         141.0106  140.8582  167.9043 C.3     1  UNL1        0.0372
      5 C         141.9615  141.6331  168.7676 C.3     1  UNL1        0.0245
      6 C         142.9998  142.2486  167.8771 C.3     1  UNL1        0.0909
      7 N         142.6907  141.8541  166.4632 N.pl3   1  UNL1       -0.3076
      8 C         141.4613  140.9948  166.4801 C.3     1  UNL1        0.0901
      9 C         140.5104  140.2199  165.6167 C.3     1  UNL1        0.0921
     10 C         143.4735  142.2494  165.2463 C.ar    1  UNL1        0.0501
     11 C         144.3964  141.2626  164.5950 C.ar    1  UNL1        0.0147
     12 C         145.1792  141.6580  163.3780 C.ar    1  UNL1        0.0036
     13 C         145.0391  143.0401  162.8124 C.ar    1  UNL1        0.0297
     14 C         144.1161  144.0270  163.4638 C.ar    1  UNL1        0.1414
     15 F         143.9759  145.4092  162.8982 F       1  UNL1       -0.2041
     16 C         143.3333  143.6317  164.6807 C.ar    1  UNL1        0.0441
     17 C         138.5579  137.6349  165.0809 C.3     1  UNL1        0.0294
     18 C         139.2984  137.9043  163.8045 C.3     1  UNL1        0.0666
     19 S         138.5903  138.5441  162.6473 S.3     1  UNL1       -0.0756
     20 C         138.6772  142.4076  162.2842 C.ar    1  UNL1        0.2029
     21 N         137.3456  142.2085  162.9456 N.ar    1  UNL1       -0.1250
     22 N         137.1510  140.7370  163.1621 N.ar    1  UNL1       -0.1220
     23 C         138.3623  140.0267  162.6345 C.ar    1  UNL1        0.1933
     24 N         139.3055  141.0591  162.0920 N.ar    1  UNL1       -0.2860
     25 C         140.6423  140.7904  161.4669 C.3     1  UNL1        0.1341
     26 C         139.5559  144.8087  164.3121 C.3     1  UNL1        0.0556
     27 C         139.6792  144.8277  162.8173 C.ar    1  UNL1        0.1001
     28 N         140.2281  145.9537  161.9921 N.ar    1  UNL1       -0.2085
     29 C         140.1635  145.5459  160.5500 C.ar    1  UNL1        0.2849
     30 O         139.5746  144.1679  160.4839 O.2     1  UNL1       -0.4283
     31 C         139.2754  143.7241  161.8852 C.ar    1  UNL1        0.1964
@<TRIPOS>BOND
     1    26    27    1
     2    27    28   ar
     3    28    29   ar
     4    29    30   ar
     5    30    31   ar
     6    31    20    1
     7    20    21   ar
     8    21    22   ar
     9    22    23   ar
    10    23    19    1
    11    19    18    1
    12    18    17    1
    13    17     1    1
    14     1     2    1
    15     2     3    1
    16     3     4    1
    17     4     5    1
    18     5     6    1
    19     6     7    1
    20     7    10    1
    21    10    11   ar
    22    11    12   ar
    23    12    13   ar
    24    13    14   ar
    25    14    15    1
    26    14    16   ar
    27     7     8    1
    28     8     9    1
    29    23    24   ar
    30    24    25    1
    31    31    27   ar
    32    24    20   ar
    33     9     2    1
    34     8     4    1
    35    16    10   ar
@<TRIPOS>MOLECULE
*****
 31 35 0 0 0
SMALL
GASTEIGER

@<TRIPOS>ATOM
      1 C         140.0809  137.2715  163.9505 C.3     1  UNL1        0.0731
      2 N         141.1425  138.0846  163.2708 N.3     1  UNL1       -0.2712
      3 C         142.0001  137.6342  162.1255 C.3     1  UNL1        0.0738
      4 C         142.9204  138.7622  161.7640 C.3     1  UNL1        0.0372
      5 C         144.0192  139.1809  160.8327 C.3     1  UNL1        0.0245
      6 C         144.4095  140.5873  161.1790 C.3     1  UNL1        0.0909
      7 N         143.5518  141.0377  162.3243 N.pl3   1  UNL1       -0.3076
      8 C         142.6315  139.9097  162.6858 C.3     1  UNL1        0.0901
      9 C         141.5327  139.4910  163.6171 C.3     1  UNL1        0.0921
     10 C         143.6051  142.3804  162.9910 C.ar    1  UNL1        0.0501
     11 C         142.8475  143.5370  162.4096 C.ar    1  UNL1        0.0147
     12 C         142.9008  144.8797  163.0763 C.ar    1  UNL1        0.0036
     13 C         143.7118  145.0657  164.3243 C.ar    1  UNL1        0.0297
     14 C         144.4695  143.9090  164.9057 C.ar    1  UNL1        0.1414
     15 F         145.2805  144.0950  166.1538 F       1  UNL1       -0.2041
     16 C         144.4162  142.5663  164.2391 C.ar    1  UNL1        0.0441
     17 C         139.1759  137.9132  164.9599 C.3     1  UNL1        0.0294
     18 C         138.4031  139.1467  164.5975 C.3     1  UNL1        0.0666
     19 S         138.1919  140.2262  165.6173 S.3     1  UNL1       -0.0756
     20 C         141.0988  142.1138  167.3646 C.ar    1  UNL1        0.2029
     21 N         141.1140  142.7510  166.0067 N.ar    1  UNL1       -0.1250
     22 N         140.0270  142.1215  165.1869 N.ar    1  UNL1       -0.1220
     23 C         139.3399  141.0951  166.0381 C.ar    1  UNL1        0.1933
     24 N         140.0022  141.0904  167.3840 N.ar    1  UNL1       -0.2860
     25 C         139.6329  140.2158  168.5453 C.3     1  UNL1        0.1341
     26 C         140.3199  143.8381  170.0235 C.3     1  UNL1        0.0556
     27 C         141.6604  143.2349  169.7253 C.ar    1  UNL1        0.1001
     28 N         142.8784  143.3183  170.5968 N.ar    1  UNL1       -0.2085
     29 C         143.9892  142.5773  169.9133 C.ar    1  UNL1        0.2849
     30 O         143.4577  142.0359  168.6193 O.2     1  UNL1       -0.4283
     31 C         142.0185  142.4423  168.5031 C.ar    1  UNL1        0.1964
@<TRIPOS>BOND
     1    26    27    1
     2    27    28   ar
     3    28    29   ar
     4    29    30   ar
     5    30    31   ar
     6    31    20    1
     7    20    21   ar
     8    21    22   ar
     9    22    23   ar
    10    23    19    1
    11    19    18    1
    12    18    17    1
    13    17     1    1
    14     1     2    1
    15     2     3    1
    16     3     4    1
    17     4     5    1
    18     5     6    1
    19     6     7    1
    20     7    10    1
    21    10    11   ar
    22    11    12   ar
    23    12    13   ar
    24    13    14   ar
    25    14    15    1
    26    14    16   ar
    27     7     8    1
    28     8     9    1
    29    23    24   ar
    30    24    25    1
    31    31    27   ar
    32    24    20   ar
    33     9     2    1
    34     8     4    1
    35    16    10   ar
