@<TRIPOS>MOLECULE
*****
 41 45 0 0 0
SMALL
GASTEIGER

@<TRIPOS>ATOM
      1 C         141.3128  143.5619  158.1652 C.2     1  UNL1        0.2458
      2 O         142.5654  144.2724  157.7455 O.2     1  UNL1       -0.2701
      3 N         140.2698  143.2144  157.1447 N.am    1  UNL1       -0.3009
      4 H         139.4477  142.7480  157.4202 H       1  UNL1        0.1497
      5 C         140.6839  142.4728  162.4859 C.ar    1  UNL1        0.0536
      6 C         139.5031  142.7390  161.6000 C.ar    1  UNL1        0.0048
      7 C         139.7128  143.1020  160.1598 C.ar    1  UNL1        0.0047
      8 C         141.1032  143.1989  159.6054 C.ar    1  UNL1        0.0534
      9 C         142.2840  142.9327  160.4913 C.ar    1  UNL1        0.0047
     10 C         142.0743  142.5697  161.9316 C.ar    1  UNL1        0.0048
     11 C         139.2525  139.9882  166.9705 C.ar    1  UNL1        0.0143
     12 C         139.4298  140.2981  168.4274 C.ar    1  UNL1        0.0091
     13 C         140.1476  141.5467  168.8466 C.ar    1  UNL1        0.0698
     14 C         140.6880  142.4855  167.8089 C.ar    1  UNL1        0.0326
     15 C         140.5106  142.1755  166.3520 C.ar    1  UNL1        0.1192
     16 N         140.9318  142.9066  165.1118 N.ar    1  UNL1       -0.2082
     17 C         140.4743  142.1098  163.9262 C.ar    1  UNL1        0.2296
     18 O         139.7704  140.8863  164.4336 O.2     1  UNL1       -0.4349
     19 C         139.7929  140.9269  165.9328 C.ar    1  UNL1        0.1607
     20 C         139.0043  137.9713  165.3516 C.3     1  UNL1        0.0048
     21 C         138.5347  138.7395  166.5514 C.3     1  UNL1        0.0254
     22 C         137.3473  138.2590  167.3320 C.3     1  UNL1        0.0048
     23 C         140.3249  141.8566  170.3035 C.1     1  UNL1        0.1005
     24 N         140.5023  142.1666  171.7604 N.1     1  UNL1       -0.1908
     25 C         140.4794  143.5774  155.7044 C.3     1  UNL1        0.0896
     26 C         140.2624  144.9895  155.2476 C.3     1  UNL1        0.0196
     27 C         141.0601  145.5382  154.1019 C.3     1  UNL1        0.0020
     28 C         140.8430  146.9503  153.6451 C.3     1  UNL1        0.0044
     29 C         139.8282  147.8138  154.3340 C.3     1  UNL1        0.0223
     30 C         139.0305  147.2651  155.4798 C.3     1  UNL1        0.0044
     31 C         139.2475  145.8530  155.9366 C.3     1  UNL1        0.0020
     32 C         139.6111  149.2260  153.8773 C.ar    1  UNL1       -0.0226
     33 C         139.7475  149.5738  152.4246 C.ar    1  UNL1       -0.0043
     34 C         139.5305  150.9859  151.9678 C.ar    1  UNL1       -0.0004
     35 C         139.1769  152.0504  152.9638 C.ar    1  UNL1        0.0038
     36 C         139.0405  151.7026  154.4165 C.ar    1  UNL1        0.0711
     37 C         139.2576  150.2904  154.8733 C.ar    1  UNL1       -0.0004
     38 C         138.6870  152.7671  155.4125 C.3     1  UNL1        0.4186
     39 F         138.3335  153.8316  156.4084 F       1  UNL1       -0.1659
     40 F         139.0426  151.8362  156.5336 F       1  UNL1       -0.1659
     41 F         138.3314  153.6980  154.2913 F       1  UNL1       -0.1659
@<TRIPOS>BOND
     1    20    21    1
     2    21    22    1
     3    21    11    1
     4    11    12   ar
     5    12    13   ar
     6    13    23    1
     7    23    24    3
     8    13    14   ar
     9    14    15   ar
    10    15    16   ar
    11    16    17   ar
    12    17     5    1
    13     5     6   ar
    14     6     7   ar
    15     7     8   ar
    16     8     1    1
    17     1     2    2
    18     1     3   am
    19     3    25    1
    20    26    25    1
    21    26    27    1
    22    27    28    1
    23    28    29    1
    24    29    32    1
    25    32    33   ar
    26    33    34   ar
    27    34    35   ar
    28    35    36   ar
    29    36    38    1
    30    38    39    1
    31    38    40    1
    32    38    41    1
    33    36    37   ar
    34    29    30    1
    35    30    31    1
    36     8     9   ar
    37     9    10   ar
    38    17    18   ar
    39    18    19   ar
    40    19    11   ar
    41    19    15   ar
    42    10     5   ar
    43    31    26    1
    44    37    32   ar
    45     3     4    1
@<TRIPOS>MOLECULE
*****
 41 45 0 0 0
SMALL
GASTEIGER

@<TRIPOS>ATOM
      1 C         142.9199  137.6603  157.7093 C.2     1  UNL1        0.2458
      2 O         143.6912  138.3742  156.6391 O.2     1  UNL1       -0.2701
      3 N         142.3903  136.2796  157.4578 N.am    1  UNL1       -0.3009
      4 H         141.8841  135.8110  158.1603 H       1  UNL1        0.1497
      5 C         142.1948  139.6608  161.6745 C.ar    1  UNL1        0.0536
      6 C         141.8802  140.3862  160.3998 C.ar    1  UNL1        0.0048
      7 C         142.1220  139.7193  159.0781 C.ar    1  UNL1        0.0047
      8 C         142.6782  138.3271  159.0311 C.ar    1  UNL1        0.0534
      9 C         142.9928  137.6016  160.3057 C.ar    1  UNL1        0.0047
     10 C         142.7510  138.2685  161.6274 C.ar    1  UNL1        0.0048
     11 C         140.1528  142.6016  165.6136 C.ar    1  UNL1        0.0143
     12 C         140.5529  142.8438  167.0388 C.ar    1  UNL1        0.0091
     13 C         141.7717  142.1735  167.5999 C.ar    1  UNL1        0.0698
     14 C         142.5906  141.2607  166.7359 C.ar    1  UNL1        0.0326
     15 C         142.1905  141.0185  165.3107 C.ar    1  UNL1        0.1192
     16 N         142.7971  140.1771  164.2271 N.ar    1  UNL1       -0.2082
     17 C         141.9530  140.3276  162.9962 C.ar    1  UNL1        0.2296
     18 O         140.8248  141.2619  163.3191 O.2     1  UNL1       -0.4349
     19 C         140.9716  141.6889  164.7495 C.ar    1  UNL1        0.1607
     20 C         137.8422  142.4489  164.4355 C.3     1  UNL1        0.0048
     21 C         138.9339  143.2720  165.0525 C.3     1  UNL1        0.0254
     22 C         138.8067  144.7656  165.1083 C.3     1  UNL1        0.0048
     23 C         142.1719  142.4157  169.0252 C.1     1  UNL1        0.1005
     24 N         142.5720  142.6580  170.4504 N.1     1  UNL1       -0.1908
     25 C         142.6321  135.6128  156.1361 C.3     1  UNL1        0.0896
     26 C         142.4421  134.1314  155.9976 C.3     1  UNL1        0.0196
     27 C         143.3079  133.1879  156.7787 C.3     1  UNL1        0.0020
     28 C         143.1179  131.7064  156.6401 C.3     1  UNL1        0.0044
     29 C         142.0621  131.1685  155.7205 C.3     1  UNL1        0.0223
     30 C         141.1961  132.1120  154.9394 C.3     1  UNL1        0.0044
     31 C         141.3861  133.5934  155.0779 C.3     1  UNL1        0.0020
     32 C         141.8720  129.6870  155.5820 C.ar    1  UNL1       -0.0226
     33 C         143.0502  128.7658  155.6967 C.ar    1  UNL1       -0.0043
     34 C         142.8602  127.2843  155.5582 C.ar    1  UNL1       -0.0004
     35 C         141.4919  126.7241  155.3049 C.ar    1  UNL1        0.0038
     36 C         140.3138  127.6454  155.1901 C.ar    1  UNL1        0.0711
     37 C         140.5038  129.1269  155.3287 C.ar    1  UNL1       -0.0004
     38 C         138.9456  127.0852  154.9368 C.3     1  UNL1        0.4186
     39 F         137.5774  126.5249  154.6835 F       1  UNL1       -0.1659
     40 F         138.8623  126.6418  156.3674 F       1  UNL1       -0.1659
     41 F         139.0288  127.5286  153.5063 F       1  UNL1       -0.1659
@<TRIPOS>BOND
     1    20    21    1
     2    21    22    1
     3    21    11    1
     4    11    12   ar
     5    12    13   ar
     6    13    23    1
     7    23    24    3
     8    13    14   ar
     9    14    15   ar
    10    15    16   ar
    11    16    17   ar
    12    17     5    1
    13     5     6   ar
    14     6     7   ar
    15     7     8   ar
    16     8     1    1
    17     1     2    2
    18     1     3   am
    19     3    25    1
    20    26    25    1
    21    26    27    1
    22    27    28    1
    23    28    29    1
    24    29    32    1
    25    32    33   ar
    26    33    34   ar
    27    34    35   ar
    28    35    36   ar
    29    36    38    1
    30    38    39    1
    31    38    40    1
    32    38    41    1
    33    36    37   ar
    34    29    30    1
    35    30    31    1
    36     8     9   ar
    37     9    10   ar
    38    17    18   ar
    39    18    19   ar
    40    19    11   ar
    41    19    15   ar
    42    10     5   ar
    43    31    26    1
    44    37    32   ar
    45     3     4    1
@<TRIPOS>MOLECULE
*****
 41 45 0 0 0
SMALL
GASTEIGER

@<TRIPOS>ATOM
      1 C         139.5987  144.3137  157.4182 C.2     1  UNL1        0.2458
      2 O         139.0348  143.3787  156.3897 O.2     1  UNL1       -0.2701
      3 N         140.0880  145.6714  157.0095 N.am    1  UNL1       -0.3009
      4 H         140.4581  146.2850  157.6846 H       1  UNL1        0.1497
      5 C         139.8223  143.0450  161.7299 C.ar    1  UNL1        0.0536
      6 C         138.8997  142.3330  160.7855 C.ar    1  UNL1        0.0048
      7 C         138.8252  142.7559  159.3483 C.ar    1  UNL1        0.0047
      8 C         139.6732  143.8908  158.8554 C.ar    1  UNL1        0.0534
      9 C         140.5958  144.6028  159.7998 C.ar    1  UNL1        0.0047
     10 C         140.6703  144.1799  161.2371 C.ar    1  UNL1        0.0048
     11 C         139.6311  140.2248  166.2404 C.ar    1  UNL1        0.0143
     12 C         139.9182  140.5488  167.6766 C.ar    1  UNL1        0.0091
     13 C         140.3632  141.9290  168.0596 C.ar    1  UNL1        0.0698
     14 C         140.5212  142.9854  167.0065 C.ar    1  UNL1        0.0326
     15 C         140.2341  142.6615  165.5703 C.ar    1  UNL1        0.1192
     16 N         140.3007  143.4902  164.3218 N.ar    1  UNL1       -0.2082
     17 C         139.8969  142.6221  163.1672 C.ar    1  UNL1        0.2296
     18 O         139.5806  141.2569  163.7020 O.2     1  UNL1       -0.4349
     19 C         139.7890  141.2812  165.1873 C.ar    1  UNL1        0.1607
     20 C         137.8870  138.3040  166.3774 C.3     1  UNL1        0.0048
     21 C         139.1860  138.8445  165.8574 C.3     1  UNL1        0.0254
     22 C         140.0401  138.0047  164.9543 C.3     1  UNL1        0.0048
     23 C         140.6503  142.2529  169.4959 C.1     1  UNL1        0.1005
     24 N         140.9374  142.5769  170.9321 N.1     1  UNL1       -0.1908
     25 C         140.0135  146.0943  155.5723 C.3     1  UNL1        0.0896
     26 C         139.7100  147.5217  155.2252 C.3     1  UNL1        0.0196
     27 C         140.2509  148.1169  153.9592 C.3     1  UNL1        0.0020
     28 C         139.9475  149.5443  153.6121 C.3     1  UNL1        0.0044
     29 C         139.1031  150.3764  154.5311 C.3     1  UNL1        0.0223
     30 C         138.5621  149.7811  155.7973 C.3     1  UNL1        0.0044
     31 C         138.8656  148.3537  156.1443 C.3     1  UNL1        0.0020
     32 C         138.7996  151.8038  154.1841 C.ar    1  UNL1       -0.0226
     33 C         138.7870  152.2404  152.7491 C.ar    1  UNL1       -0.0043
     34 C         138.4835  153.6678  152.4021 C.ar    1  UNL1       -0.0004
     35 C         138.1926  154.6586  153.4901 C.ar    1  UNL1        0.0038
     36 C         138.2053  154.2220  154.9251 C.ar    1  UNL1        0.0711
     37 C         138.5087  152.7946  155.2721 C.ar    1  UNL1       -0.0004
     38 C         137.9144  155.2128  156.0130 C.3     1  UNL1        0.4186
     39 F         137.6235  156.2037  157.1010 F       1  UNL1       -0.1659
     40 F         137.3988  156.1829  154.9917 F       1  UNL1       -0.1659
     41 F         138.4299  154.2428  157.0344 F       1  UNL1       -0.1659
@<TRIPOS>BOND
     1    20    21    1
     2    21    22    1
     3    21    11    1
     4    11    12   ar
     5    12    13   ar
     6    13    23    1
     7    23    24    3
     8    13    14   ar
     9    14    15   ar
    10    15    16   ar
    11    16    17   ar
    12    17     5    1
    13     5     6   ar
    14     6     7   ar
    15     7     8   ar
    16     8     1    1
    17     1     2    2
    18     1     3   am
    19     3    25    1
    20    26    25    1
    21    26    27    1
    22    27    28    1
    23    28    29    1
    24    29    32    1
    25    32    33   ar
    26    33    34   ar
    27    34    35   ar
    28    35    36   ar
    29    36    38    1
    30    38    39    1
    31    38    40    1
    32    38    41    1
    33    36    37   ar
    34    29    30    1
    35    30    31    1
    36     8     9   ar
    37     9    10   ar
    38    17    18   ar
    39    18    19   ar
    40    19    11   ar
    41    19    15   ar
    42    10     5   ar
    43    31    26    1
    44    37    32   ar
    45     3     4    1
@<TRIPOS>MOLECULE
*****
 41 45 0 0 0
SMALL
GASTEIGER

@<TRIPOS>ATOM
      1 C         142.4973  137.7839  157.4838 C.2     1  UNL1        0.2458
      2 O         143.7808  138.1472  156.7980 O.2     1  UNL1       -0.2701
      3 N         141.5249  136.8585  156.8144 N.am    1  UNL1       -0.3009
      4 H         140.6825  136.6201  157.2646 H       1  UNL1        0.1497
      5 C         141.5636  139.4705  161.5501 C.ar    1  UNL1        0.0536
      6 C         140.9952  140.1167  160.3215 C.ar    1  UNL1        0.0048
      7 C         141.3065  139.5545  158.9661 C.ar    1  UNL1        0.0047
      8 C         142.1861  138.3461  158.8392 C.ar    1  UNL1        0.0534
      9 C         142.7544  137.6999  160.0678 C.ar    1  UNL1        0.0047
     10 C         142.4431  138.2621  161.4232 C.ar    1  UNL1        0.0048
     11 C         140.2916  142.7384  165.5547 C.ar    1  UNL1        0.0143
     12 C         140.1283  142.5484  167.0336 C.ar    1  UNL1        0.0091
     13 C         140.3405  141.1948  167.6438 C.ar    1  UNL1        0.0698
     14 C         140.7162  140.0310  166.7752 C.ar    1  UNL1        0.0326
     15 C         140.8796  140.2210  165.2963 C.ar    1  UNL1        0.1192
     16 N         141.2412  139.2680  164.1958 N.ar    1  UNL1       -0.2082
     17 C         141.2523  140.0327  162.9055 C.ar    1  UNL1        0.2296
     18 O         140.8977  141.4583  163.2084 O.2     1  UNL1       -0.4349
     19 C         140.6673  141.5747  164.6860 C.ar    1  UNL1        0.1607
     20 C         138.7935  144.8277  165.1801 C.3     1  UNL1        0.0048
     21 C         140.0794  144.0922  164.9445 C.3     1  UNL1        0.0254
     22 C         141.1530  144.7103  164.0987 C.3     1  UNL1        0.0048
     23 C         140.1771  141.0048  169.1228 C.1     1  UNL1        0.1005
     24 N         140.0138  140.8148  170.6018 N.1     1  UNL1       -0.1908
     25 C         141.8362  136.2964  155.4590 C.3     1  UNL1        0.0896
     26 C         142.3999  134.9121  155.3325 C.3     1  UNL1        0.0196
     27 C         142.1258  134.1002  154.1014 C.3     1  UNL1        0.0020
     28 C         142.6896  132.7160  153.9750 C.3     1  UNL1        0.0044
     29 C         143.5275  132.1436  155.0797 C.3     1  UNL1        0.0223
     30 C         143.8016  132.9556  156.3109 C.3     1  UNL1        0.0044
     31 C         143.2378  134.3398  156.4373 C.3     1  UNL1        0.0020
     32 C         144.0912  130.7594  154.9532 C.ar    1  UNL1       -0.0226
     33 C         144.3942  130.1938  153.5974 C.ar    1  UNL1       -0.0043
     34 C         144.9580  128.8096  153.4709 C.ar    1  UNL1       -0.0004
     35 C         145.2188  127.9909  154.7005 C.ar    1  UNL1        0.0038
     36 C         144.9159  128.5564  156.0563 C.ar    1  UNL1        0.0711
     37 C         144.3521  129.9406  156.1828 C.ar    1  UNL1       -0.0004
     38 C         145.1767  127.7376  157.2858 C.3     1  UNL1        0.4186
     39 F         145.4376  126.9188  158.5152 F       1  UNL1       -0.1659
     40 F         145.6716  126.6097  156.4296 F       1  UNL1       -0.1659
     41 F         144.6819  128.8655  158.1419 F       1  UNL1       -0.1659
@<TRIPOS>BOND
     1    20    21    1
     2    21    22    1
     3    21    11    1
     4    11    12   ar
     5    12    13   ar
     6    13    23    1
     7    23    24    3
     8    13    14   ar
     9    14    15   ar
    10    15    16   ar
    11    16    17   ar
    12    17     5    1
    13     5     6   ar
    14     6     7   ar
    15     7     8   ar
    16     8     1    1
    17     1     2    2
    18     1     3   am
    19     3    25    1
    20    26    25    1
    21    26    27    1
    22    27    28    1
    23    28    29    1
    24    29    32    1
    25    32    33   ar
    26    33    34   ar
    27    34    35   ar
    28    35    36   ar
    29    36    38    1
    30    38    39    1
    31    38    40    1
    32    38    41    1
    33    36    37   ar
    34    29    30    1
    35    30    31    1
    36     8     9   ar
    37     9    10   ar
    38    17    18   ar
    39    18    19   ar
    40    19    11   ar
    41    19    15   ar
    42    10     5   ar
    43    31    26    1
    44    37    32   ar
    45     3     4    1
@<TRIPOS>MOLECULE
*****
 41 45 0 0 0
SMALL
GASTEIGER

@<TRIPOS>ATOM
      1 C         142.1284  140.4125  159.2557 C.2     1  UNL1        0.2458
      2 O         141.9148  141.6344  158.4123 O.2     1  UNL1       -0.2701
      3 N         142.1076  140.5207  160.7517 N.am    1  UNL1       -0.3009
      4 H         142.2478  139.7187  161.3052 H       1  UNL1        0.1497
      5 C         142.8318  136.4222  157.2980 C.ar    1  UNL1        0.0536
      6 C         142.9203  136.5517  158.7897 C.ar    1  UNL1        0.0048
      7 C         142.6858  137.8818  159.4423 C.ar    1  UNL1        0.0047
      8 C         142.3629  139.0825  158.6031 C.ar    1  UNL1        0.0534
      9 C         142.2744  138.9530  157.1114 C.ar    1  UNL1        0.0047
     10 C         142.5089  137.6228  156.4588 C.ar    1  UNL1        0.0048
     11 C         142.6052  132.2251  154.0319 C.ar    1  UNL1        0.0143
     12 C         143.3207  130.9074  153.9887 C.ar    1  UNL1        0.0091
     13 C         144.3454  130.5758  155.0326 C.ar    1  UNL1        0.0698
     14 C         144.6548  131.5619  156.1199 C.ar    1  UNL1        0.0326
     15 C         143.9393  132.8796  156.1631 C.ar    1  UNL1        0.1192
     16 N         144.0331  134.0420  157.1064 N.ar    1  UNL1       -0.2082
     17 C         143.0662  135.0921  156.6454 C.ar    1  UNL1        0.2296
     18 O         142.3750  134.5786  155.4171 O.2     1  UNL1       -0.4349
     19 C         142.9146  133.2112  155.1191 C.ar    1  UNL1        0.1607
     20 C         140.3779  131.6777  152.8115 C.3     1  UNL1        0.0048
     21 C         141.5805  132.5567  152.9879 C.3     1  UNL1        0.0254
     22 C         141.7583  133.7674  152.1203 C.3     1  UNL1        0.0048
     23 C         145.0608  129.2580  154.9894 C.1     1  UNL1        0.1005
     24 N         145.7762  127.9403  154.9463 N.1     1  UNL1       -0.1908
     25 C         141.8731  141.8508  161.4043 C.3     1  UNL1        0.0896
     26 C         141.9702  141.9821  162.8954 C.3     1  UNL1        0.0196
     27 C         140.9956  141.2590  163.7770 C.3     1  UNL1        0.0020
     28 C         141.0927  141.3904  165.2680 C.3     1  UNL1        0.0044
     29 C         142.1644  142.2448  165.8775 C.3     1  UNL1        0.0223
     30 C         143.1391  142.9679  164.9958 C.3     1  UNL1        0.0044
     31 C         143.0420  142.8366  163.5048 C.3     1  UNL1        0.0020
     32 C         142.2615  142.3761  167.3686 C.ar    1  UNL1       -0.0226
     33 C         143.5877  142.2161  168.0509 C.ar    1  UNL1       -0.0043
     34 C         143.6848  142.3474  169.5419 C.ar    1  UNL1       -0.0004
     35 C         142.4555  142.6388  170.3507 C.ar    1  UNL1        0.0038
     36 C         141.1293  142.7988  169.6685 C.ar    1  UNL1        0.0711
     37 C         141.0323  142.6675  168.1774 C.ar    1  UNL1       -0.0004
     38 C         139.9002  143.0902  170.4773 C.3     1  UNL1        0.4186
     39 F         138.6710  143.3816  171.2862 F       1  UNL1       -0.1659
     40 F         140.1602  144.5614  170.3425 F       1  UNL1       -0.1659
     41 F         139.6402  141.6191  170.6122 F       1  UNL1       -0.1659
@<TRIPOS>BOND
     1    20    21    1
     2    21    22    1
     3    21    11    1
     4    11    12   ar
     5    12    13   ar
     6    13    23    1
     7    23    24    3
     8    13    14   ar
     9    14    15   ar
    10    15    16   ar
    11    16    17   ar
    12    17     5    1
    13     5     6   ar
    14     6     7   ar
    15     7     8   ar
    16     8     1    1
    17     1     2    2
    18     1     3   am
    19     3    25    1
    20    26    25    1
    21    26    27    1
    22    27    28    1
    23    28    29    1
    24    29    32    1
    25    32    33   ar
    26    33    34   ar
    27    34    35   ar
    28    35    36   ar
    29    36    38    1
    30    38    39    1
    31    38    40    1
    32    38    41    1
    33    36    37   ar
    34    29    30    1
    35    30    31    1
    36     8     9   ar
    37     9    10   ar
    38    17    18   ar
    39    18    19   ar
    40    19    11   ar
    41    19    15   ar
    42    10     5   ar
    43    31    26    1
    44    37    32   ar
    45     3     4    1
@<TRIPOS>MOLECULE
*****
 41 45 0 0 0
SMALL
GASTEIGER

@<TRIPOS>ATOM
      1 C         142.1801  137.6513  157.5230 C.2     1  UNL1        0.2458
      2 O         140.9613  137.1428  156.8117 O.2     1  UNL1       -0.2701
      3 N         143.5356  137.4815  156.9035 N.am    1  UNL1       -0.3009
      4 H         144.3355  137.8152  157.3704 H       1  UNL1        0.1497
      5 C         141.7699  139.6860  161.5157 C.ar    1  UNL1        0.0536
      6 C         142.9035  138.7345  161.2718 C.ar    1  UNL1        0.0048
      7 C         143.0402  138.0563  159.9409 C.ar    1  UNL1        0.0047
      8 C         142.0433  138.3295  158.8539 C.ar    1  UNL1        0.0534
      9 C         140.9097  139.2810  159.0978 C.ar    1  UNL1        0.0047
     10 C         140.7730  139.9593  160.4288 C.ar    1  UNL1        0.0048
     11 C         140.0679  142.6941  165.5641 C.ar    1  UNL1        0.0143
     12 C         140.5676  142.9322  166.9582 C.ar    1  UNL1        0.0091
     13 C         141.8039  142.2336  167.4413 C.ar    1  UNL1        0.0698
     14 C         142.5406  141.2968  166.5302 C.ar    1  UNL1        0.0326
     15 C         142.0408  141.0587  165.1361 C.ar    1  UNL1        0.1192
     16 N         142.5530  140.1978  164.0197 N.ar    1  UNL1       -0.2082
     17 C         141.6332  140.3643  162.8466 C.ar    1  UNL1        0.2296
     18 O         140.5525  141.3282  163.2380 O.2     1  UNL1       -0.4349
     19 C         140.8045  141.7574  164.6531 C.ar    1  UNL1        0.1607
     20 C         137.7141  142.6017  164.4680 C.3     1  UNL1        0.0048
     21 C         138.8315  143.3927  165.0810 C.3     1  UNL1        0.0254
     22 C         138.7126  144.8824  165.2109 C.3     1  UNL1        0.0048
     23 C         142.3037  142.4717  168.8355 C.1     1  UNL1        0.1005
     24 N         142.8034  142.7098  170.2296 N.1     1  UNL1       -0.1908
     25 C         143.6723  136.8032  155.5726 C.3     1  UNL1        0.0896
     26 C         143.1144  135.4253  155.3722 C.3     1  UNL1        0.0196
     27 C         143.3115  134.3759  156.4256 C.3     1  UNL1        0.0020
     28 C         142.7536  132.9980  156.2252 C.3     1  UNL1        0.0044
     29 C         141.9986  132.6696  154.9713 C.3     1  UNL1        0.0223
     30 C         141.8015  133.7192  153.9179 C.3     1  UNL1        0.0044
     31 C         142.3594  135.0970  154.1183 C.3     1  UNL1        0.0020
     32 C         141.4407  131.2917  154.7709 C.ar    1  UNL1       -0.0226
     33 C         140.2599  131.0844  153.8695 C.ar    1  UNL1       -0.0043
     34 C         139.7020  129.7066  153.6691 C.ar    1  UNL1       -0.0004
     35 C         140.3250  128.5359  154.3702 C.ar    1  UNL1        0.0038
     36 C         141.5058  128.7432  155.2716 C.ar    1  UNL1        0.0711
     37 C         142.0637  130.1211  155.4720 C.ar    1  UNL1       -0.0004
     38 C         142.1288  127.5725  155.9726 C.3     1  UNL1        0.4186
     39 F         142.7517  126.4018  156.6737 F       1  UNL1       -0.1659
     40 F         142.8532  128.5093  156.8933 F       1  UNL1       -0.1659
     41 F         141.4043  126.6357  155.0520 F       1  UNL1       -0.1659
@<TRIPOS>BOND
     1    20    21    1
     2    21    22    1
     3    21    11    1
     4    11    12   ar
     5    12    13   ar
     6    13    23    1
     7    23    24    3
     8    13    14   ar
     9    14    15   ar
    10    15    16   ar
    11    16    17   ar
    12    17     5    1
    13     5     6   ar
    14     6     7   ar
    15     7     8   ar
    16     8     1    1
    17     1     2    2
    18     1     3   am
    19     3    25    1
    20    26    25    1
    21    26    27    1
    22    27    28    1
    23    28    29    1
    24    29    32    1
    25    32    33   ar
    26    33    34   ar
    27    34    35   ar
    28    35    36   ar
    29    36    38    1
    30    38    39    1
    31    38    40    1
    32    38    41    1
    33    36    37   ar
    34    29    30    1
    35    30    31    1
    36     8     9   ar
    37     9    10   ar
    38    17    18   ar
    39    18    19   ar
    40    19    11   ar
    41    19    15   ar
    42    10     5   ar
    43    31    26    1
    44    37    32   ar
    45     3     4    1
@<TRIPOS>MOLECULE
*****
 41 45 0 0 0
SMALL
GASTEIGER

@<TRIPOS>ATOM
      1 C         142.6176  139.3084  159.6664 C.2     1  UNL1        0.2458
      2 O         144.0984  139.1962  159.4553 O.2     1  UNL1       -0.2701
      3 N         141.6886  139.2899  158.4888 N.am    1  UNL1       -0.3009
      4 H         140.7167  139.3636  158.6274 H       1  UNL1        0.1497
      5 C         140.9622  139.7005  163.8325 C.ar    1  UNL1        0.0536
      6 C         140.9805  140.8892  162.9178 C.ar    1  UNL1        0.0048
      7 C         141.5324  140.7584  161.5291 C.ar    1  UNL1        0.0047
      8 C         142.0658  139.4390  161.0551 C.ar    1  UNL1        0.0534
      9 C         142.0474  138.2504  161.9698 C.ar    1  UNL1        0.0047
     10 C         141.4956  138.3811  163.3585 C.ar    1  UNL1        0.0048
     11 C         140.1275  141.1743  168.8788 C.ar    1  UNL1        0.0143
     12 C         139.1276  140.7730  169.9224 C.ar    1  UNL1        0.0091
     13 C         138.0835  139.7442  169.6043 C.ar    1  UNL1        0.0698
     14 C         138.0392  139.1166  168.2426 C.ar    1  UNL1        0.0326
     15 C         139.0392  139.5178  167.1990 C.ar    1  UNL1        0.1192
     16 N         139.2413  139.0756  165.7800 N.ar    1  UNL1       -0.2082
     17 C         140.4103  139.8311  165.2211 C.ar    1  UNL1        0.2296
     18 O         140.9308  140.7403  166.2947 O.2     1  UNL1       -0.4349
     19 C         140.0833  140.5467  167.5171 C.ar    1  UNL1        0.1607
     20 C         140.7612  143.5857  169.6093 C.3     1  UNL1        0.0048
     21 C         141.1717  142.2031  169.1969 C.3     1  UNL1        0.0254
     22 C         142.6264  141.8494  169.1026 C.3     1  UNL1        0.0048
     23 C         137.0835  139.3430  170.6480 C.1     1  UNL1        0.1005
     24 N         136.0835  138.9417  171.6915 N.1     1  UNL1       -0.1908
     25 C         142.2404  139.1593  157.1002 C.3     1  UNL1        0.0896
     26 C         142.3500  137.8068  156.4608 C.3     1  UNL1        0.0196
     27 C         141.8674  137.6001  155.0557 C.3     1  UNL1        0.0020
     28 C         141.9770  136.2476  154.4164 C.3     1  UNL1        0.0044
     29 C         142.5693  135.1018  155.1822 C.3     1  UNL1        0.0223
     30 C         143.0519  135.3085  156.5874 C.3     1  UNL1        0.0044
     31 C         142.9423  136.6610  157.2267 C.3     1  UNL1        0.0020
     32 C         142.6789  133.7493  154.5429 C.ar    1  UNL1       -0.0226
     33 C         141.9610  133.4674  153.2564 C.ar    1  UNL1       -0.0043
     34 C         142.0706  132.1149  152.6171 C.ar    1  UNL1       -0.0004
     35 C         142.8982  131.0443  153.2644 C.ar    1  UNL1        0.0038
     36 C         143.6160  131.3262  154.5509 C.ar    1  UNL1        0.0711
     37 C         143.5064  132.6787  155.1902 C.ar    1  UNL1       -0.0004
     38 C         144.4436  130.2555  155.1981 C.3     1  UNL1        0.4186
     39 F         145.2711  129.1848  155.8453 F       1  UNL1       -0.1659
     40 F         143.5881  129.2050  154.5541 F       1  UNL1       -0.1659
     41 F         145.2991  131.3060  155.8420 F       1  UNL1       -0.1659
@<TRIPOS>BOND
     1    20    21    1
     2    21    22    1
     3    21    11    1
     4    11    12   ar
     5    12    13   ar
     6    13    23    1
     7    23    24    3
     8    13    14   ar
     9    14    15   ar
    10    15    16   ar
    11    16    17   ar
    12    17     5    1
    13     5     6   ar
    14     6     7   ar
    15     7     8   ar
    16     8     1    1
    17     1     2    2
    18     1     3   am
    19     3    25    1
    20    26    25    1
    21    26    27    1
    22    27    28    1
    23    28    29    1
    24    29    32    1
    25    32    33   ar
    26    33    34   ar
    27    34    35   ar
    28    35    36   ar
    29    36    38    1
    30    38    39    1
    31    38    40    1
    32    38    41    1
    33    36    37   ar
    34    29    30    1
    35    30    31    1
    36     8     9   ar
    37     9    10   ar
    38    17    18   ar
    39    18    19   ar
    40    19    11   ar
    41    19    15   ar
    42    10     5   ar
    43    31    26    1
    44    37    32   ar
    45     3     4    1
@<TRIPOS>MOLECULE
*****
 41 45 0 0 0
SMALL
GASTEIGER

@<TRIPOS>ATOM
      1 C         142.8740  138.4440  158.4942 C.2     1  UNL1        0.2458
      2 O         143.8045  139.1762  157.5734 O.2     1  UNL1       -0.2701
      3 N         142.1136  137.2500  157.9982 N.am    1  UNL1       -0.3009
      4 H         141.5029  136.7694  158.6026 H       1  UNL1        0.1497
      5 C         142.3636  139.8295  162.7452 C.ar    1  UNL1        0.0536
      6 C         141.4278  138.8068  162.1722 C.ar    1  UNL1        0.0048
      7 C         141.5980  138.3450  160.7552 C.ar    1  UNL1        0.0047
      8 C         142.7039  138.9058  159.9112 C.ar    1  UNL1        0.0534
      9 C         143.6397  139.9285  160.4841 C.ar    1  UNL1        0.0047
     10 C         143.4696  140.3903  161.9011 C.ar    1  UNL1        0.0048
     11 C         140.5096  140.6181  167.6721 C.ar    1  UNL1        0.0143
     12 C         140.9997  141.4100  168.8480 C.ar    1  UNL1        0.0091
     13 C         142.2744  142.1938  168.7456 C.ar    1  UNL1        0.0698
     14 C         143.0592  142.1858  167.4672 C.ar    1  UNL1        0.0326
     15 C         142.5691  141.3939  166.2913 C.ar    1  UNL1        0.1192
     16 N         143.1249  141.1969  164.9121 N.ar    1  UNL1       -0.2082
     17 C         142.1935  140.2913  164.1621 C.ar    1  UNL1        0.2296
     18 O         141.0622  139.9286  165.0778 O.2     1  UNL1       -0.4349
     19 C         141.2943  140.6101  166.3938 C.ar    1  UNL1        0.1607
     20 C         138.6906  139.1266  166.5692 C.3     1  UNL1        0.0048
     21 C         139.2348  139.8343  167.7746 C.3     1  UNL1        0.0254
     22 C         138.5042  139.7581  169.0825 C.3     1  UNL1        0.0048
     23 C         142.7646  142.9857  169.9215 C.1     1  UNL1        0.1005
     24 N         143.2547  143.7776  171.0974 N.1     1  UNL1       -0.1908
     25 C         142.2837  136.7881  156.5812 C.3     1  UNL1        0.0896
     26 C         142.3003  135.3214  156.2673 C.3     1  UNL1        0.0196
     27 C         141.4221  134.7772  155.1799 C.3     1  UNL1        0.0020
     28 C         141.4388  133.3105  154.8660 C.3     1  UNL1        0.0044
     29 C         142.3337  132.3881  155.6395 C.3     1  UNL1        0.0223
     30 C         143.2120  132.9324  156.7269 C.3     1  UNL1        0.0044
     31 C         143.1953  134.3991  157.0408 C.3     1  UNL1        0.0020
     32 C         142.3503  130.9214  155.3256 C.ar    1  UNL1       -0.0226
     33 C         143.6550  130.1852  155.2506 C.ar    1  UNL1       -0.0043
     34 C         143.6717  128.7185  154.9367 C.ar    1  UNL1       -0.0004
     35 C         142.3835  127.9880  154.6977 C.ar    1  UNL1        0.0038
     36 C         141.0788  128.7242  154.7727 C.ar    1  UNL1        0.0711
     37 C         141.0622  130.1909  155.0866 C.ar    1  UNL1       -0.0004
     38 C         139.7907  127.9937  154.5337 C.3     1  UNL1        0.4186
     39 F         138.5026  127.2632  154.2946 F       1  UNL1       -0.1659
     40 F         139.1503  128.7559  155.6557 F       1  UNL1       -0.1659
     41 F         140.4312  127.2315  153.4117 F       1  UNL1       -0.1659
@<TRIPOS>BOND
     1    20    21    1
     2    21    22    1
     3    21    11    1
     4    11    12   ar
     5    12    13   ar
     6    13    23    1
     7    23    24    3
     8    13    14   ar
     9    14    15   ar
    10    15    16   ar
    11    16    17   ar
    12    17     5    1
    13     5     6   ar
    14     6     7   ar
    15     7     8   ar
    16     8     1    1
    17     1     2    2
    18     1     3   am
    19     3    25    1
    20    26    25    1
    21    26    27    1
    22    27    28    1
    23    28    29    1
    24    29    32    1
    25    32    33   ar
    26    33    34   ar
    27    34    35   ar
    28    35    36   ar
    29    36    38    1
    30    38    39    1
    31    38    40    1
    32    38    41    1
    33    36    37   ar
    34    29    30    1
    35    30    31    1
    36     8     9   ar
    37     9    10   ar
    38    17    18   ar
    39    18    19   ar
    40    19    11   ar
    41    19    15   ar
    42    10     5   ar
    43    31    26    1
    44    37    32   ar
    45     3     4    1
@<TRIPOS>MOLECULE
*****
 41 45 0 0 0
SMALL
GASTEIGER

@<TRIPOS>ATOM
      1 C         143.2470  139.0390  157.5567 C.2     1  UNL1        0.2458
      2 O         144.4730  139.5191  156.8380 O.2     1  UNL1       -0.2701
      3 N         142.3307  138.0504  156.8986 N.am    1  UNL1       -0.3009
      4 H         141.5261  137.7353  157.3703 H       1  UNL1        0.1497
      5 C         142.3182  140.5645  161.6871 C.ar    1  UNL1        0.0536
      6 C         142.8861  139.1880  161.5061 C.ar    1  UNL1        0.0048
      7 C         143.1957  138.6795  160.1292 C.ar    1  UNL1        0.0047
      8 C         142.9374  139.5475  158.9335 C.ar    1  UNL1        0.0534
      9 C         142.3695  140.9240  159.1145 C.ar    1  UNL1        0.0047
     10 C         142.0599  141.4324  160.4913 C.ar    1  UNL1        0.0048
     11 C         140.0180  142.9485  165.8536 C.ar    1  UNL1        0.0143
     12 C         140.3728  143.0626  167.3066 C.ar    1  UNL1        0.0091
     13 C         141.6187  142.4100  167.8278 C.ar    1  UNL1        0.0698
     14 C         142.5099  141.6433  166.8961 C.ar    1  UNL1        0.0326
     15 C         142.1551  141.5292  165.4431 C.ar    1  UNL1        0.1192
     16 N         142.8346  140.8439  164.2949 N.ar    1  UNL1       -0.2082
     17 C         142.0086  141.0730  163.0639 C.ar    1  UNL1        0.2296
     18 O         140.8186  141.8998  163.4514 O.2     1  UNL1       -0.4349
     19 C         140.9091  142.1818  164.9219 C.ar    1  UNL1        0.1607
     20 C         138.4681  145.0269  165.6855 C.3     1  UNL1        0.0048
     21 C         138.7720  143.6011  165.3324 C.3     1  UNL1        0.0254
     22 C         137.8298  142.8278  164.4579 C.3     1  UNL1        0.0048
     23 C         141.9736  142.5241  169.2808 C.1     1  UNL1        0.1005
     24 N         142.3284  142.6382  170.7338 N.1     1  UNL1       -0.1908
     25 C         142.6403  137.5419  155.5218 C.3     1  UNL1        0.0896
     26 C         142.5577  136.0732  155.2285 C.3     1  UNL1        0.0196
     27 C         142.1945  135.6027  153.8513 C.3     1  UNL1        0.0020
     28 C         142.1119  134.1340  153.5581 C.3     1  UNL1        0.0044
     29 C         142.3923  133.1358  154.6420 C.3     1  UNL1        0.0223
     30 C         142.7554  133.6063  156.0193 C.3     1  UNL1        0.0044
     31 C         142.8381  135.0750  156.3126 C.3     1  UNL1        0.0020
     32 C         142.3096  131.6670  154.3488 C.ar    1  UNL1       -0.0226
     33 C         143.3494  131.0146  153.4868 C.ar    1  UNL1       -0.0043
     34 C         143.2667  129.5459  153.1935 C.ar    1  UNL1       -0.0004
     35 C         142.1441  128.7296  153.7623 C.ar    1  UNL1        0.0038
     36 C         141.1043  129.3820  154.6243 C.ar    1  UNL1        0.0711
     37 C         141.1870  130.8508  154.9176 C.ar    1  UNL1       -0.0004
     38 C         139.9817  128.5657  155.1931 C.3     1  UNL1        0.4186
     39 F         138.8592  127.7493  155.7618 F       1  UNL1       -0.1659
     40 F         140.8190  127.3274  155.0683 F       1  UNL1       -0.1659
     41 F         139.1445  129.8040  155.3179 F       1  UNL1       -0.1659
@<TRIPOS>BOND
     1    20    21    1
     2    21    22    1
     3    21    11    1
     4    11    12   ar
     5    12    13   ar
     6    13    23    1
     7    23    24    3
     8    13    14   ar
     9    14    15   ar
    10    15    16   ar
    11    16    17   ar
    12    17     5    1
    13     5     6   ar
    14     6     7   ar
    15     7     8   ar
    16     8     1    1
    17     1     2    2
    18     1     3   am
    19     3    25    1
    20    26    25    1
    21    26    27    1
    22    27    28    1
    23    28    29    1
    24    29    32    1
    25    32    33   ar
    26    33    34   ar
    27    34    35   ar
    28    35    36   ar
    29    36    38    1
    30    38    39    1
    31    38    40    1
    32    38    41    1
    33    36    37   ar
    34    29    30    1
    35    30    31    1
    36     8     9   ar
    37     9    10   ar
    38    17    18   ar
    39    18    19   ar
    40    19    11   ar
    41    19    15   ar
    42    10     5   ar
    43    31    26    1
    44    37    32   ar
    45     3     4    1
