@<TRIPOS>MOLECULE
*****
 37 41 0 0 0
SMALL
GASTEIGER

@<TRIPOS>ATOM
      1 C         138.0838  142.7506  164.7321 C.3     1  UNL1        0.0768
      2 N         138.2058  141.3845  164.1248 N.3     1  UNL1       -0.2724
      3 C         137.7710  140.9914  162.7440 C.3     1  UNL1        0.0721
      4 C         138.0805  139.5356  162.5574 C.3     1  UNL1        0.0187
      5 C         138.7066  139.0289  163.8228 C.3     1  UNL1        0.0178
      6 C         138.7840  140.1716  164.7915 C.3     1  UNL1        0.0721
      7 C         139.1733  137.6259  164.0753 C.3     1  UNL1        0.0077
      8 C         140.5074  137.1750  163.5589 C.3     1  UNL1        0.0459
      9 C         141.7077  138.0626  163.7065 C.ar    1  UNL1        0.0603
     10 C         142.5452  137.9910  164.9490 C.ar    1  UNL1        0.0145
     11 C         143.7454  138.8784  165.0966 C.ar    1  UNL1       -0.0003
     12 C         144.1083  139.8375  164.0017 C.ar    1  UNL1        0.0092
     13 C         143.2708  139.9091  162.7593 C.ar    1  UNL1        0.1240
     14 N         142.0705  139.0216  162.6117 N.ar    1  UNL1       -0.2356
     15 N         143.6336  140.8681  161.6645 N.pl3   1  UNL1       -0.3184
     16 C         144.8339  141.7555  161.8122 C.3     1  UNL1        0.0885
     17 C         145.6713  141.6840  163.0546 C.3     1  UNL1        0.0260
     18 C         145.3085  140.7250  164.1494 C.3     1  UNL1        0.0309
     19 H         143.0840  140.9151  160.8491 H       1  UNL1        0.1482
     20 C         139.2213  143.7227  164.6265 C.3     1  UNL1        0.0438
     21 C         142.0374  142.1885  166.9645 C.ar    1  UNL1        0.0338
     22 C         143.2762  142.6249  166.2399 C.ar    1  UNL1        0.0030
     23 C         143.1634  143.4272  164.9776 C.ar    1  UNL1       -0.0002
     24 C         141.8118  143.7931  164.4398 C.ar    1  UNL1       -0.0042
     25 C         140.5730  143.3567  165.1643 C.ar    1  UNL1       -0.0207
     26 C         140.6858  142.5544  166.4267 C.ar    1  UNL1       -0.0012
     27 C         142.8362  138.1892  170.3184 C.3     1  UNL1        0.0538
     28 C         142.5174  139.5479  169.7685 C.ar    1  UNL1        0.0781
     29 C         142.1304  140.7551  170.5703 C.ar    1  UNL1        0.0919
     30 N         141.9035  141.8912  169.6176 N.ar    1  UNL1       -0.3085
     31 C         141.5005  143.2872  169.9901 C.3     1  UNL1        0.1320
     32 C         142.1503  141.3861  168.2268 C.ar    1  UNL1        0.1435
     33 N         142.5297  139.9379  168.3201 N.ar    1  UNL1       -0.2311
     34 C         139.0072  145.0606  163.9831 C.3     1  UNL1        0.0474
     35 C         139.1321  145.2060  162.4954 C.2     1  UNL1        0.0507
     36 O         138.5826  144.1443  161.5893 O.co2   1  UNL1       -0.5492
     37 O         139.8064  146.4131  161.9137 O.co2   1  UNL1       -0.5492
@<TRIPOS>UNITY_ATOM_ATTR
36 1
charge -1
@<TRIPOS>BOND
     1    27    28    1
     2    28    29   ar
     3    29    30   ar
     4    30    31    1
     5    30    32   ar
     6    32    21    1
     7    21    22   ar
     8    22    23   ar
     9    23    24   ar
    10    24    25   ar
    11    25    20    1
    12    20    34    1
    13    34    35    1
    14    35    36   ar
    15    35    37   ar
    16    20     1    1
    17     1     2    1
    18     2     3    1
    19     3     4    1
    20     4     5    1
    21     5     7    1
    22     7     8    1
    23     8     9    1
    24     9    10   ar
    25    10    11   ar
    26    11    12   ar
    27    12    13   ar
    28    13    14   ar
    29    13    15    1
    30    15    16    1
    31    16    17    1
    32    17    18    1
    33     5     6    1
    34    25    26   ar
    35    32    33   ar
    36    33    28   ar
    37    26    21   ar
    38     6     2    1
    39    14     9   ar
    40    18    12    1
    41    15    19    1
@<TRIPOS>MOLECULE
*****
 37 41 0 0 0
SMALL
GASTEIGER

@<TRIPOS>ATOM
      1 C         138.1770  139.1044  163.1456 C.3     1  UNL1        0.0768
      2 N         138.0183  140.5942  163.0730 N.3     1  UNL1       -0.2724
      3 C         138.0290  141.4221  161.8221 C.3     1  UNL1        0.0721
      4 C         137.8383  142.8572  162.2144 C.3     1  UNL1        0.0187
      5 C         137.7097  142.9164  163.7077 C.3     1  UNL1        0.0178
      6 C         137.8209  141.5177  164.2383 C.3     1  UNL1        0.0721
      7 C         137.5057  144.1564  164.5266 C.3     1  UNL1        0.0077
      8 C         138.6429  144.7251  165.3224 C.3     1  UNL1        0.0459
      9 C         139.9900  144.0663  165.2820 C.ar    1  UNL1        0.0603
     10 C         140.3406  143.0136  166.2914 C.ar    1  UNL1        0.0145
     11 C         141.6876  142.3549  166.2510 C.ar    1  UNL1       -0.0003
     12 C         142.6840  142.7488  165.2012 C.ar    1  UNL1        0.0092
     13 C         142.3334  143.8015  164.1918 C.ar    1  UNL1        0.1240
     14 N         140.9863  144.4603  164.2322 N.ar    1  UNL1       -0.2356
     15 N         143.3297  144.1955  163.1420 N.pl3   1  UNL1       -0.3184
     16 C         144.6766  143.5367  163.1016 C.3     1  UNL1        0.0885
     17 C         145.0273  142.4840  164.1110 C.3     1  UNL1        0.0260
     18 C         144.0310  142.0901  165.1608 C.3     1  UNL1        0.0309
     19 H         143.0995  144.8864  162.4795 H       1  UNL1        0.1482
     20 C         139.1690  138.5013  164.0956 C.3     1  UNL1        0.0438
     21 C         142.6003  139.3831  162.3072 C.ar    1  UNL1        0.0338
     22 C         143.5794  139.0570  163.3958 C.ar    1  UNL1        0.0030
     23 C         143.0883  138.5456  164.7177 C.ar    1  UNL1       -0.0002
     24 C         141.6182  138.3603  164.9509 C.ar    1  UNL1       -0.0042
     25 C         140.6392  138.6865  163.8623 C.ar    1  UNL1       -0.0207
     26 C         141.1302  139.1979  162.5404 C.ar    1  UNL1       -0.0012
     27 C         144.4693  142.5727  158.5369 C.3     1  UNL1        0.0538
     28 C         143.9505  141.3606  159.2523 C.ar    1  UNL1        0.0781
     29 C         143.7437  140.0025  158.6501 C.ar    1  UNL1        0.0919
     30 N         143.2128  139.0964  159.7211 N.ar    1  UNL1       -0.3085
     31 C         142.8644  137.6467  159.5568 C.3     1  UNL1        0.1320
     32 C         143.0914  139.8945  160.9854 C.ar    1  UNL1        0.1435
     33 N         143.5473  141.2939  160.6956 N.ar    1  UNL1       -0.2311
     34 C         138.6908  137.7129  165.2787 C.3     1  UNL1        0.0474
     35 C         138.1830  138.4239  166.4980 C.2     1  UNL1        0.0507
     36 O         138.9018  139.6353  167.0137 O.co2   1  UNL1       -0.5492
     37 O         136.9565  137.9234  167.2017 O.co2   1  UNL1       -0.5492
@<TRIPOS>UNITY_ATOM_ATTR
36 1
charge -1
@<TRIPOS>BOND
     1    27    28    1
     2    28    29   ar
     3    29    30   ar
     4    30    31    1
     5    30    32   ar
     6    32    21    1
     7    21    22   ar
     8    22    23   ar
     9    23    24   ar
    10    24    25   ar
    11    25    20    1
    12    20    34    1
    13    34    35    1
    14    35    36   ar
    15    35    37   ar
    16    20     1    1
    17     1     2    1
    18     2     3    1
    19     3     4    1
    20     4     5    1
    21     5     7    1
    22     7     8    1
    23     8     9    1
    24     9    10   ar
    25    10    11   ar
    26    11    12   ar
    27    12    13   ar
    28    13    14   ar
    29    13    15    1
    30    15    16    1
    31    16    17    1
    32    17    18    1
    33     5     6    1
    34    25    26   ar
    35    32    33   ar
    36    33    28   ar
    37    26    21   ar
    38     6     2    1
    39    14     9   ar
    40    18    12    1
    41    15    19    1
@<TRIPOS>MOLECULE
*****
 37 41 0 0 0
SMALL
GASTEIGER

@<TRIPOS>ATOM
      1 C         141.3288  137.6809  164.2036 C.3     1  UNL1        0.0768
      2 N         142.5452  138.3812  163.6746 N.3     1  UNL1       -0.2724
      3 C         143.0619  138.3099  162.2681 C.3     1  UNL1        0.0721
      4 C         144.2945  139.1604  162.1834 C.3     1  UNL1        0.0187
      5 C         144.5397  139.7573  163.5375 C.3     1  UNL1        0.0178
      6 C         143.4586  139.2758  164.4590 C.3     1  UNL1        0.0721
      7 C         145.6680  140.6748  163.9053 C.3     1  UNL1        0.0077
      8 C         145.6466  142.1064  163.4582 C.3     1  UNL1        0.0459
      9 C         144.3502  142.8598  163.4163 C.ar    1  UNL1        0.0603
     10 C         143.5506  143.0470  164.6716 C.ar    1  UNL1        0.0145
     11 C         142.2542  143.8004  164.6297 C.ar    1  UNL1       -0.0003
     12 C         141.7574  144.3666  163.3325 C.ar    1  UNL1        0.0092
     13 C         142.5570  144.1795  162.0773 C.ar    1  UNL1        0.1240
     14 N         143.8534  143.4260  162.1192 N.ar    1  UNL1       -0.2356
     15 N         142.0602  144.7457  160.7802 N.pl3   1  UNL1       -0.3184
     16 C         140.7638  145.4990  160.7383 C.3     1  UNL1        0.0885
     17 C         139.9642  145.6862  161.9935 C.3     1  UNL1        0.0260
     18 C         140.4610  145.1200  163.2907 C.3     1  UNL1        0.0309
     19 H         142.5850  144.6228  159.9563 H       1  UNL1        0.1482
     20 C         140.0051  138.3863  164.2204 C.3     1  UNL1        0.0438
     21 C         140.5265  141.3318  166.8285 C.ar    1  UNL1        0.0338
     22 C         139.6067  142.3747  166.2659 C.ar    1  UNL1        0.0030
     23 C         138.8198  142.0881  165.0215 C.ar    1  UNL1       -0.0002
     24 C         138.9526  140.7586  164.3397 C.ar    1  UNL1       -0.0042
     25 C         139.8724  139.7158  164.9023 C.ar    1  UNL1       -0.0207
     26 C         140.6593  140.0024  166.1467 C.ar    1  UNL1       -0.0012
     27 C         144.4448  142.7217  170.0837 C.3     1  UNL1        0.0538
     28 C         143.1145  142.2573  169.5691 C.ar    1  UNL1        0.0781
     29 C         141.9346  141.8617  170.4065 C.ar    1  UNL1        0.0919
     30 N         140.8215  141.4668  169.4818 N.ar    1  UNL1       -0.3085
     31 C         139.4561  141.0020  169.8936 C.3     1  UNL1        0.1320
     32 C         141.3135  141.6184  168.0728 C.ar    1  UNL1        0.1435
     33 N         142.7307  142.1070  168.1269 N.ar    1  UNL1       -0.2311
     34 C         138.8143  137.7622  163.5553 C.3     1  UNL1        0.0474
     35 C         138.5895  137.9555  162.0849 C.2     1  UNL1        0.0507
     36 O         137.2442  138.3891  161.5824 O.co2   1  UNL1       -0.5492
     37 O         139.7099  137.7154  161.1169 O.co2   1  UNL1       -0.5492
@<TRIPOS>UNITY_ATOM_ATTR
36 1
charge -1
@<TRIPOS>BOND
     1    27    28    1
     2    28    29   ar
     3    29    30   ar
     4    30    31    1
     5    30    32   ar
     6    32    21    1
     7    21    22   ar
     8    22    23   ar
     9    23    24   ar
    10    24    25   ar
    11    25    20    1
    12    20    34    1
    13    34    35    1
    14    35    36   ar
    15    35    37   ar
    16    20     1    1
    17     1     2    1
    18     2     3    1
    19     3     4    1
    20     4     5    1
    21     5     7    1
    22     7     8    1
    23     8     9    1
    24     9    10   ar
    25    10    11   ar
    26    11    12   ar
    27    12    13   ar
    28    13    14   ar
    29    13    15    1
    30    15    16    1
    31    16    17    1
    32    17    18    1
    33     5     6    1
    34    25    26   ar
    35    32    33   ar
    36    33    28   ar
    37    26    21   ar
    38     6     2    1
    39    14     9   ar
    40    18    12    1
    41    15    19    1
@<TRIPOS>MOLECULE
*****
 37 41 0 0 0
SMALL
GASTEIGER

@<TRIPOS>ATOM
      1 C         138.4567  138.8354  163.0324 C.3     1  UNL1        0.0768
      2 N         138.2767  140.2893  162.7105 N.3     1  UNL1       -0.2724
      3 C         138.2792  140.8955  161.3384 C.3     1  UNL1        0.0721
      4 C         138.0666  142.3732  161.4841 C.3     1  UNL1        0.0187
      5 C         137.9328  142.6803  162.9462 C.3     1  UNL1        0.0178
      6 C         138.0626  141.3924  163.7042 C.3     1  UNL1        0.0721
      7 C         137.7085  144.0371  163.5451 C.3     1  UNL1        0.0077
      8 C         138.8440  144.7634  164.2032 C.3     1  UNL1        0.0459
      9 C         139.9083  143.9928  164.9268 C.ar    1  UNL1        0.0603
     10 C         141.2636  143.8228  164.3070 C.ar    1  UNL1        0.0145
     11 C         142.3279  143.0523  165.0305 C.ar    1  UNL1       -0.0003
     12 C         142.0369  142.4517  166.3739 C.ar    1  UNL1        0.0092
     13 C         140.6816  142.6217  166.9937 C.ar    1  UNL1        0.1240
     14 N         139.6173  143.3923  166.2702 N.ar    1  UNL1       -0.2356
     15 N         140.3906  142.0212  168.3371 N.pl3   1  UNL1       -0.3184
     16 C         141.4549  141.2507  169.0606 C.3     1  UNL1        0.0885
     17 C         142.8102  141.0807  168.4407 C.3     1  UNL1        0.0260
     18 C         143.1012  141.6812  167.0974 C.3     1  UNL1        0.0309
     19 H         139.5011  142.1328  168.7439 H       1  UNL1        0.1482
     20 C         139.3038  138.4251  164.2004 C.3     1  UNL1        0.0438
     21 C         142.8084  139.9971  163.2016 C.ar    1  UNL1        0.0338
     22 C         143.7019  139.3772  164.2348 C.ar    1  UNL1        0.0030
     23 C         143.1294  138.4399  165.2564 C.ar    1  UNL1       -0.0002
     24 C         141.6634  138.1226  165.2449 C.ar    1  UNL1       -0.0042
     25 C         140.7699  138.7425  164.2118 C.ar    1  UNL1       -0.0207
     26 C         141.3424  139.6798  163.1902 C.ar    1  UNL1       -0.0012
     27 C         143.4700  142.8183  158.7875 C.3     1  UNL1        0.0538
     28 C         143.6850  142.2312  160.1511 C.ar    1  UNL1        0.0781
     29 C         144.8385  142.5224  161.0646 C.ar    1  UNL1        0.0919
     30 N         144.6506  141.7209  162.3185 N.ar    1  UNL1       -0.3085
     31 C         145.5708  141.7082  163.5030 C.3     1  UNL1        0.1320
     32 C         143.3808  140.9344  162.1800 C.ar    1  UNL1        0.1435
     33 N         142.7841  141.2498  160.8404 N.ar    1  UNL1       -0.2311
     34 C         138.6850  137.6974  165.3568 C.3     1  UNL1        0.0474
     35 C         138.1529  138.4671  166.5292 C.2     1  UNL1        0.0507
     36 O         138.7523  139.7942  166.8896 O.co2   1  UNL1       -0.5492
     37 O         137.0214  137.9099  167.3412 O.co2   1  UNL1       -0.5492
@<TRIPOS>UNITY_ATOM_ATTR
36 1
charge -1
@<TRIPOS>BOND
     1    27    28    1
     2    28    29   ar
     3    29    30   ar
     4    30    31    1
     5    30    32   ar
     6    32    21    1
     7    21    22   ar
     8    22    23   ar
     9    23    24   ar
    10    24    25   ar
    11    25    20    1
    12    20    34    1
    13    34    35    1
    14    35    36   ar
    15    35    37   ar
    16    20     1    1
    17     1     2    1
    18     2     3    1
    19     3     4    1
    20     4     5    1
    21     5     7    1
    22     7     8    1
    23     8     9    1
    24     9    10   ar
    25    10    11   ar
    26    11    12   ar
    27    12    13   ar
    28    13    14   ar
    29    13    15    1
    30    15    16    1
    31    16    17    1
    32    17    18    1
    33     5     6    1
    34    25    26   ar
    35    32    33   ar
    36    33    28   ar
    37    26    21   ar
    38     6     2    1
    39    14     9   ar
    40    18    12    1
    41    15    19    1
@<TRIPOS>MOLECULE
*****
 37 41 0 0 0
SMALL
GASTEIGER

@<TRIPOS>ATOM
      1 C         142.3468  141.2200  168.1478 C.3     1  UNL1        0.0768
      2 N         142.9237  140.3454  167.0744 N.3     1  UNL1       -0.2724
      3 C         143.1526  138.8660  167.1707 C.3     1  UNL1        0.0721
      4 C         143.7433  138.4029  165.8720 C.3     1  UNL1        0.0187
      5 C         143.8795  139.5959  164.9731 C.3     1  UNL1        0.0178
      6 C         143.3729  140.7964  165.7162 C.3     1  UNL1        0.0721
      7 C         144.4262  139.5896  163.5763 C.3     1  UNL1        0.0077
      8 C         143.5240  139.8908  162.4164 C.3     1  UNL1        0.0459
      9 C         142.8288  141.2173  162.3317 C.ar    1  UNL1        0.0603
     10 C         143.5873  142.4350  161.8939 C.ar    1  UNL1        0.0145
     11 C         142.8922  143.7614  161.8091 C.ar    1  UNL1       -0.0003
     12 C         141.4383  143.8702  162.1623 C.ar    1  UNL1        0.0092
     13 C         140.6798  142.6525  162.6002 C.ar    1  UNL1        0.1240
     14 N         141.3750  141.3260  162.6849 N.ar    1  UNL1       -0.2356
     15 N         139.2260  142.7612  162.9533 N.pl3   1  UNL1       -0.3184
     16 C         138.5308  144.0877  162.8686 C.3     1  UNL1        0.0885
     17 C         139.2894  145.3054  162.4307 C.3     1  UNL1        0.0260
     18 C         140.7432  145.1966  162.0776 C.3     1  UNL1        0.0309
     19 H         138.7281  141.9620  163.2407 H       1  UNL1        0.1482
     20 C         140.8942  141.5925  168.1117 C.3     1  UNL1        0.0438
     21 C         138.8318  139.4689  165.4683 C.ar    1  UNL1        0.0338
     22 C         137.8821  138.7383  166.3707 C.ar    1  UNL1        0.0030
     23 C         137.9364  138.9590  167.8533 C.ar    1  UNL1       -0.0002
     24 C         138.9404  139.9104  168.4337 C.ar    1  UNL1       -0.0042
     25 C         139.8901  140.6410  167.5313 C.ar    1  UNL1       -0.0207
     26 C         139.8358  140.4203  166.0487 C.ar    1  UNL1       -0.0012
     27 C         137.4578  139.8374  160.3833 C.3     1  UNL1        0.0538
     28 C         138.1460  139.4175  161.6483 C.ar    1  UNL1        0.0781
     29 C         139.2419  138.3995  161.7597 C.ar    1  UNL1        0.0919
     30 N         139.6322  138.2948  163.2043 N.ar    1  UNL1       -0.3085
     31 C         140.6914  137.3948  163.7684 C.3     1  UNL1        0.1320
     32 C         138.7775  139.2482  163.9857 C.ar    1  UNL1        0.1435
     33 N         137.8589  139.9421  163.0240 N.ar    1  UNL1       -0.2311
     34 C         140.4457  142.9163  168.6560 C.3     1  UNL1        0.0474
     35 C         140.6459  143.2371  170.1076 C.2     1  UNL1        0.0507
     36 O         141.9684  143.7603  170.5846 O.co2   1  UNL1       -0.5492
     37 O         139.5236  143.0349  171.0821 O.co2   1  UNL1       -0.5492
@<TRIPOS>UNITY_ATOM_ATTR
36 1
charge -1
@<TRIPOS>BOND
     1    27    28    1
     2    28    29   ar
     3    29    30   ar
     4    30    31    1
     5    30    32   ar
     6    32    21    1
     7    21    22   ar
     8    22    23   ar
     9    23    24   ar
    10    24    25   ar
    11    25    20    1
    12    20    34    1
    13    34    35    1
    14    35    36   ar
    15    35    37   ar
    16    20     1    1
    17     1     2    1
    18     2     3    1
    19     3     4    1
    20     4     5    1
    21     5     7    1
    22     7     8    1
    23     8     9    1
    24     9    10   ar
    25    10    11   ar
    26    11    12   ar
    27    12    13   ar
    28    13    14   ar
    29    13    15    1
    30    15    16    1
    31    16    17    1
    32    17    18    1
    33     5     6    1
    34    25    26   ar
    35    32    33   ar
    36    33    28   ar
    37    26    21   ar
    38     6     2    1
    39    14     9   ar
    40    18    12    1
    41    15    19    1
@<TRIPOS>MOLECULE
*****
 37 41 0 0 0
SMALL
GASTEIGER

@<TRIPOS>ATOM
      1 C         143.7127  143.7244  164.6755 C.3     1  UNL1        0.0768
      2 N         142.3757  144.1712  164.1627 N.3     1  UNL1       -0.2724
      3 C         142.1351  145.0155  162.9464 C.3     1  UNL1        0.0721
      4 C         140.6554  145.2183  162.8081 C.3     1  UNL1        0.0187
      5 C         139.9814  144.4993  163.9390 C.3     1  UNL1        0.0178
      6 C         141.0446  143.8522  164.7761 C.3     1  UNL1        0.0721
      7 C         138.5036  144.4382  164.1888 C.3     1  UNL1        0.0077
      8 C         137.7848  143.1236  164.1179 C.3     1  UNL1        0.0459
      9 C         138.5643  141.8485  163.9885 C.ar    1  UNL1        0.0603
     10 C         138.7286  140.9462  165.1754 C.ar    1  UNL1        0.0145
     11 C         139.5080  139.6712  165.0460 C.ar    1  UNL1       -0.0003
     12 C         140.1232  139.2985  163.7297 C.ar    1  UNL1        0.0092
     13 C         139.9589  140.2008  162.5428 C.ar    1  UNL1        0.1240
     14 N         139.1794  141.4759  162.6722 N.ar    1  UNL1       -0.2356
     15 N         140.5740  139.8281  161.2265 N.pl3   1  UNL1       -0.3184
     16 C         141.3534  138.5531  161.0971 C.3     1  UNL1        0.0885
     17 C         141.5178  137.6508  162.2840 C.3     1  UNL1        0.0260
     18 C         140.9026  138.0235  163.6003 C.3     1  UNL1        0.0309
     19 H         140.4662  140.4204  160.4474 H       1  UNL1        0.1482
     20 C         144.2276  142.3572  164.3355 C.3     1  UNL1        0.0438
     21 C         142.4933  140.1768  167.1618 C.ar    1  UNL1        0.0338
     22 C         142.9594  138.8017  166.7851 C.ar    1  UNL1        0.0030
     23 C         143.8483  138.6118  165.5919 C.ar    1  UNL1       -0.0002
     24 C         144.2710  139.7969  164.7754 C.ar    1  UNL1       -0.0042
     25 C         143.8049  141.1720  165.1521 C.ar    1  UNL1       -0.0207
     26 C         142.9160  141.3619  166.3453 C.ar    1  UNL1       -0.0012
     27 C         138.2630  140.1865  170.3219 C.3     1  UNL1        0.0538
     28 C         139.6600  140.3712  169.8076 C.ar    1  UNL1        0.0781
     29 C         140.8132  140.9468  170.5750 C.ar    1  UNL1        0.0919
     30 N         142.0149  140.9440  169.6773 N.ar    1  UNL1       -0.3085
     31 C         143.3863  141.4328  170.0384 C.3     1  UNL1        0.1320
     32 C         141.6044  140.3667  168.3551 C.ar    1  UNL1        0.1435
     33 N         140.1490  140.0127  168.4356 N.ar    1  UNL1       -0.2311
     34 C         145.1653  142.1751  163.1790 C.3     1  UNL1        0.0474
     35 C         144.6211  141.9082  161.8069 C.2     1  UNL1        0.0507
     36 O         144.3878  140.4973  161.3540 O.co2   1  UNL1       -0.5492
     37 O         144.3100  143.0521  160.8878 O.co2   1  UNL1       -0.5492
@<TRIPOS>UNITY_ATOM_ATTR
36 1
charge -1
@<TRIPOS>BOND
     1    27    28    1
     2    28    29   ar
     3    29    30   ar
     4    30    31    1
     5    30    32   ar
     6    32    21    1
     7    21    22   ar
     8    22    23   ar
     9    23    24   ar
    10    24    25   ar
    11    25    20    1
    12    20    34    1
    13    34    35    1
    14    35    36   ar
    15    35    37   ar
    16    20     1    1
    17     1     2    1
    18     2     3    1
    19     3     4    1
    20     4     5    1
    21     5     7    1
    22     7     8    1
    23     8     9    1
    24     9    10   ar
    25    10    11   ar
    26    11    12   ar
    27    12    13   ar
    28    13    14   ar
    29    13    15    1
    30    15    16    1
    31    16    17    1
    32    17    18    1
    33     5     6    1
    34    25    26   ar
    35    32    33   ar
    36    33    28   ar
    37    26    21   ar
    38     6     2    1
    39    14     9   ar
    40    18    12    1
    41    15    19    1
@<TRIPOS>MOLECULE
*****
 37 41 0 0 0
SMALL
GASTEIGER

@<TRIPOS>ATOM
      1 C         139.7848  144.4035  163.7826 C.3     1  UNL1        0.0768
      2 N         141.2324  144.3889  163.3898 N.3     1  UNL1       -0.2724
      3 C         142.3099  145.2622  163.9611 C.3     1  UNL1        0.0721
      4 C         143.6001  144.9115  163.2811 C.3     1  UNL1        0.0187
      5 C         143.3200  143.8214  162.2895 C.3     1  UNL1        0.0178
      6 C         141.8567  143.4984  162.3567 C.3     1  UNL1        0.0721
      7 C         144.3265  143.1689  161.3889 C.3     1  UNL1        0.0077
      8 C         144.9622  141.8711  161.7906 C.3     1  UNL1        0.0459
      9 C         144.1688  140.8516  162.5531 C.ar    1  UNL1        0.0603
     10 C         144.6106  140.4289  163.9229 C.ar    1  UNL1        0.0145
     11 C         143.8173  139.4095  164.6854 C.ar    1  UNL1       -0.0003
     12 C         142.5822  138.8128  164.0782 C.ar    1  UNL1        0.0092
     13 C         142.1404  139.2356  162.7085 C.ar    1  UNL1        0.1240
     14 N         142.9338  140.2550  161.9460 N.ar    1  UNL1       -0.2356
     15 N         140.9054  138.6390  162.1014 N.pl3   1  UNL1       -0.3184
     16 C         140.1121  137.6196  162.8639 C.3     1  UNL1        0.0885
     17 C         140.5538  137.1969  164.2336 C.3     1  UNL1        0.0260
     18 C         141.7889  137.7935  164.8408 C.3     1  UNL1        0.0309
     19 H         140.6154  138.9165  161.2024 H       1  UNL1        0.1482
     20 C         138.9873  143.1334  163.7547 C.3     1  UNL1        0.0438
     21 C         140.3407  141.3257  167.0182 C.ar    1  UNL1        0.0338
     22 C         139.5356  140.0603  166.9959 C.ar    1  UNL1        0.0030
     23 C         138.5478  139.8192  165.8932 C.ar    1  UNL1       -0.0002
     24 C         138.3650  140.8435  164.8128 C.ar    1  UNL1       -0.0042
     25 C         139.1701  142.1090  164.8351 C.ar    1  UNL1       -0.0207
     26 C         140.1580  142.3501  165.9378 C.ar    1  UNL1       -0.0012
     27 C         142.9927  143.6034  170.9756 C.3     1  UNL1        0.0538
     28 C         142.5476  142.6137  169.9399 C.ar    1  UNL1        0.0781
     29 C         143.1500  141.2619  169.6958 C.ar    1  UNL1        0.0919
     30 N         142.3967  140.6149  168.5716 N.ar    1  UNL1       -0.3085
     31 C         142.6644  139.2547  167.9987 C.3     1  UNL1        0.1320
     32 C         141.3286  141.5668  168.1209 C.ar    1  UNL1        0.1435
     33 N         141.4219  142.8022  168.9666 N.ar    1  UNL1       -0.2311
     34 C         138.0069  142.8876  162.6463 C.3     1  UNL1        0.0474
     35 C         138.4773  142.3145  161.3423 C.2     1  UNL1        0.0507
     36 O         138.1085  142.9847  160.0520 O.co2   1  UNL1       -0.5492
     37 O         139.3165  141.0713  161.3286 O.co2   1  UNL1       -0.5492
@<TRIPOS>UNITY_ATOM_ATTR
36 1
charge -1
@<TRIPOS>BOND
     1    27    28    1
     2    28    29   ar
     3    29    30   ar
     4    30    31    1
     5    30    32   ar
     6    32    21    1
     7    21    22   ar
     8    22    23   ar
     9    23    24   ar
    10    24    25   ar
    11    25    20    1
    12    20    34    1
    13    34    35    1
    14    35    36   ar
    15    35    37   ar
    16    20     1    1
    17     1     2    1
    18     2     3    1
    19     3     4    1
    20     4     5    1
    21     5     7    1
    22     7     8    1
    23     8     9    1
    24     9    10   ar
    25    10    11   ar
    26    11    12   ar
    27    12    13   ar
    28    13    14   ar
    29    13    15    1
    30    15    16    1
    31    16    17    1
    32    17    18    1
    33     5     6    1
    34    25    26   ar
    35    32    33   ar
    36    33    28   ar
    37    26    21   ar
    38     6     2    1
    39    14     9   ar
    40    18    12    1
    41    15    19    1
@<TRIPOS>MOLECULE
*****
 37 41 0 0 0
SMALL
GASTEIGER

@<TRIPOS>ATOM
      1 C         142.5339  137.6266  161.9977 C.3     1  UNL1        0.0768
      2 N         141.1704  137.6988  162.6187 N.3     1  UNL1       -0.2724
      3 C         139.8922  138.0237  161.9041 C.3     1  UNL1        0.0721
      4 C         138.7775  137.9844  162.9071 C.3     1  UNL1        0.0187
      5 C         139.3668  137.6352  164.2415 C.3     1  UNL1        0.0178
      6 C         140.8457  137.4587  164.0633 C.3     1  UNL1        0.0721
      7 C         138.6101  137.4883  165.5283 C.3     1  UNL1        0.0077
      8 C         138.1983  138.7071  166.2995 C.3     1  UNL1        0.0459
      9 C         139.2250  139.5012  167.0515 C.ar    1  UNL1        0.0603
     10 C         140.4281  140.0401  166.3358 C.ar    1  UNL1        0.0145
     11 C         141.4548  140.8342  167.0878 C.ar    1  UNL1       -0.0003
     12 C         141.2783  141.0893  168.5554 C.ar    1  UNL1        0.0092
     13 C         140.0752  140.5504  169.2710 C.ar    1  UNL1        0.1240
     14 N         139.0486  139.7563  168.5190 N.ar    1  UNL1       -0.2356
     15 N         139.8988  140.8055  170.7386 N.pl3   1  UNL1       -0.3184
     16 C         140.9255  141.5996  171.4905 C.3     1  UNL1        0.0885
     17 C         142.1286  142.1385  170.7749 C.3     1  UNL1        0.0260
     18 C         142.3050  141.8834  169.3073 C.3     1  UNL1        0.0309
     19 H         139.1092  140.4518  171.2082 H       1  UNL1        0.1482
     20 C         143.2470  138.8866  161.6053 C.3     1  UNL1        0.0438
     21 C         142.4434  142.1607  163.6993 C.ar    1  UNL1        0.0338
     22 C         143.6650  142.2504  164.5652 C.ar    1  UNL1        0.0030
     23 C         144.7472  141.2188  164.4445 C.ar    1  UNL1       -0.0002
     24 C         144.6078  140.0976  163.4578 C.ar    1  UNL1       -0.0042
     25 C         143.3863  140.0079  162.5919 C.ar    1  UNL1       -0.0207
     26 C         142.3040  141.0395  162.7127 C.ar    1  UNL1       -0.0012
     27 C         138.4248  145.0275  165.5738 C.3     1  UNL1        0.0538
     28 C         139.5140  144.5101  164.6816 C.ar    1  UNL1        0.0781
     29 C         139.8775  145.0496  163.3300 C.ar    1  UNL1        0.0919
     30 N         141.0191  144.2352  162.7975 N.ar    1  UNL1       -0.3085
     31 C         141.6992  144.4296  161.4748 C.3     1  UNL1        0.1320
     32 C         141.3612  143.1923  163.8200 C.ar    1  UNL1        0.1435
     33 N         140.4310  143.3622  164.9844 N.ar    1  UNL1       -0.2311
     34 C         143.8207  139.0254  160.2263 C.3     1  UNL1        0.0474
     35 C         142.9098  139.0608  159.0351 C.2     1  UNL1        0.0507
     36 O         143.3901  138.5516  157.7083 O.co2   1  UNL1       -0.5492
     37 O         141.5187  139.6052  159.1705 O.co2   1  UNL1       -0.5492
@<TRIPOS>UNITY_ATOM_ATTR
36 1
charge -1
@<TRIPOS>BOND
     1    27    28    1
     2    28    29   ar
     3    29    30   ar
     4    30    31    1
     5    30    32   ar
     6    32    21    1
     7    21    22   ar
     8    22    23   ar
     9    23    24   ar
    10    24    25   ar
    11    25    20    1
    12    20    34    1
    13    34    35    1
    14    35    36   ar
    15    35    37   ar
    16    20     1    1
    17     1     2    1
    18     2     3    1
    19     3     4    1
    20     4     5    1
    21     5     7    1
    22     7     8    1
    23     8     9    1
    24     9    10   ar
    25    10    11   ar
    26    11    12   ar
    27    12    13   ar
    28    13    14   ar
    29    13    15    1
    30    15    16    1
    31    16    17    1
    32    17    18    1
    33     5     6    1
    34    25    26   ar
    35    32    33   ar
    36    33    28   ar
    37    26    21   ar
    38     6     2    1
    39    14     9   ar
    40    18    12    1
    41    15    19    1
@<TRIPOS>MOLECULE
*****
 37 41 0 0 0
SMALL
GASTEIGER

@<TRIPOS>ATOM
      1 C         140.5460  143.9106  164.6812 C.3     1  UNL1        0.0768
      2 N         141.9237  143.6762  164.1364 N.3     1  UNL1       -0.2724
      3 C         142.5186  144.3379  162.9287 C.3     1  UNL1        0.0721
      4 C         143.9110  143.8096  162.7494 C.3     1  UNL1        0.0187
      5 C         144.1767  142.8215  163.8462 C.3     1  UNL1        0.0178
      6 C         142.9485  142.7390  164.7034 C.3     1  UNL1        0.0721
      7 C         145.4475  142.0511  164.0501 C.3     1  UNL1        0.0077
      8 C         145.4270  140.5514  164.0280 C.3     1  UNL1        0.0459
      9 C         144.1194  139.8183  164.0806 C.ar    1  UNL1        0.0603
     10 C         143.6852  139.1492  165.3509 C.ar    1  UNL1        0.0145
     11 C         142.3777  138.4161  165.4035 C.ar    1  UNL1       -0.0003
     12 C         141.5042  138.3520  164.1857 C.ar    1  UNL1        0.0092
     13 C         141.9384  139.0211  162.9153 C.ar    1  UNL1        0.1240
     14 N         143.2460  139.7542  162.8628 N.ar    1  UNL1       -0.2356
     15 N         141.0650  138.9571  161.6975 N.pl3   1  UNL1       -0.3184
     16 C         139.7575  138.2239  161.7501 C.3     1  UNL1        0.0885
     17 C         139.3233  137.5549  163.0205 C.3     1  UNL1        0.0260
     18 C         140.1967  137.6189  164.2383 C.3     1  UNL1        0.0309
     19 H         141.3500  139.3962  160.8637 H       1  UNL1        0.1482
     20 C         139.4690  142.8898  164.4618 C.3     1  UNL1        0.0438
     21 C         139.9988  140.5472  167.6212 C.ar    1  UNL1        0.0338
     22 C         138.9670  139.4888  167.3656 C.ar    1  UNL1        0.0030
     23 C         138.1026  139.5641  166.1421 C.ar    1  UNL1       -0.0002
     24 C         138.2699  140.6977  165.1742 C.ar    1  UNL1       -0.0042
     25 C         139.3017  141.7561  165.4298 C.ar    1  UNL1       -0.0207
     26 C         140.1661  141.6808  166.6533 C.ar    1  UNL1       -0.0012
     27 C         143.7482  139.0827  171.0386 C.3     1  UNL1        0.0538
     28 C         142.5867  139.7988  170.4156 C.ar    1  UNL1        0.0781
     29 C         141.8004  140.9133  171.0397 C.ar    1  UNL1        0.0919
     30 N         140.7352  141.3293  170.0689 N.ar    1  UNL1       -0.3085
     31 C         139.7203  142.4126  170.2844 C.3     1  UNL1        0.1320
     32 C         140.8632  140.4719  168.8447 C.ar    1  UNL1        0.1435
     33 N         142.0075  139.5260  169.0590 N.ar    1  UNL1       -0.2311
     34 C         138.5593  143.0026  163.2745 C.3     1  UNL1        0.0474
     35 C         138.8351  142.1976  162.0392 C.2     1  UNL1        0.0507
     36 O         140.2499  141.9187  161.6260 O.co2   1  UNL1       -0.5492
     37 O         137.6961  141.6715  161.2171 O.co2   1  UNL1       -0.5492
@<TRIPOS>UNITY_ATOM_ATTR
36 1
charge -1
@<TRIPOS>BOND
     1    27    28    1
     2    28    29   ar
     3    29    30   ar
     4    30    31    1
     5    30    32   ar
     6    32    21    1
     7    21    22   ar
     8    22    23   ar
     9    23    24   ar
    10    24    25   ar
    11    25    20    1
    12    20    34    1
    13    34    35    1
    14    35    36   ar
    15    35    37   ar
    16    20     1    1
    17     1     2    1
    18     2     3    1
    19     3     4    1
    20     4     5    1
    21     5     7    1
    22     7     8    1
    23     8     9    1
    24     9    10   ar
    25    10    11   ar
    26    11    12   ar
    27    12    13   ar
    28    13    14   ar
    29    13    15    1
    30    15    16    1
    31    16    17    1
    32    17    18    1
    33     5     6    1
    34    25    26   ar
    35    32    33   ar
    36    33    28   ar
    37    26    21   ar
    38     6     2    1
    39    14     9   ar
    40    18    12    1
    41    15    19    1
