@<TRIPOS>MOLECULE
*****
 35 38 0 0 0
SMALL
GASTEIGER

@<TRIPOS>ATOM
      1 C         140.9775  144.0211  160.9827 C.ar    1  UNL1        0.0199
      2 C         140.9200  145.0353  162.0862 C.ar    1  UNL1        0.0017
      3 C         141.0605  144.5985  163.5143 C.ar    1  UNL1        0.0046
      4 C         141.2585  143.1475  163.8388 C.ar    1  UNL1        0.0537
      5 C         141.3160  142.1332  162.7352 C.ar    1  UNL1        0.0046
      6 C         141.1755  142.5700  161.3071 C.ar    1  UNL1        0.0017
      7 C         140.5560  145.3314  156.6982 C.ar    1  UNL1        0.0153
      8 C         141.6693  145.8762  157.5432 C.ar    1  UNL1        0.0960
      9 N         141.8097  145.4395  158.9713 N.ar    1  UNL1       -0.2419
     10 C         140.8370  144.4578  159.5545 C.ar    1  UNL1        0.1086
     11 C         139.7238  143.9130  158.7096 C.ar    1  UNL1        0.1574
     12 F         138.7511  142.9313  159.2928 F       1  UNL1       -0.2026
     13 C         139.5833  144.3497  157.2815 C.ar    1  UNL1        0.0298
     14 C         140.4156  145.7681  155.2702 C.3     1  UNL1        0.1008
     15 N         139.3684  150.0393  154.3162 N.3     1  UNL1       -0.2703
     16 C         140.2984  149.2770  153.4197 C.3     1  UNL1        0.0897
     17 C         140.6475  147.8532  153.7377 C.3     1  UNL1        0.0899
     18 N         140.0665  147.1919  154.9522 N.3     1  UNL1       -0.2665
     19 C         139.1365  147.9542  155.8486 C.3     1  UNL1        0.0899
     20 C         138.7874  149.3780  155.5306 C.3     1  UNL1        0.0897
     21 C         138.4239  152.3436  155.0565 C.3     1  UNL1        0.0188
     22 C         139.0193  151.4631  153.9982 C.3     1  UNL1        0.0722
     23 C         141.3990  142.7107  165.2670 C.2     1  UNL1        0.2495
     24 O         140.3052  143.0017  166.2513 O.2     1  UNL1       -0.2698
     25 N         142.6333  141.9830  165.7107 N.am    1  UNL1       -0.2794
     26 H         143.3512  141.7921  165.0647 H       1  UNL1        0.1552
     27 C         142.7737  141.5463  167.1388 C.ar    1  UNL1        0.0636
     28 C         143.3489  142.4856  168.1573 C.ar    1  UNL1        0.0159
     29 C         143.4893  142.0488  169.5854 C.ar    1  UNL1        0.0014
     30 C         143.0547  140.6729  169.9951 C.ar    1  UNL1        0.0013
     31 C         142.4796  139.7337  168.9768 C.ar    1  UNL1        0.0153
     32 C         142.3391  140.1704  167.5486 C.ar    1  UNL1        0.0552
     33 N         141.7640  139.2312  166.5302 N.pl3   1  UNL1       -0.3560
     34 H         141.4787  138.3281  166.7992 H       1  UNL1        0.1424
     35 H         141.6718  139.5178  165.5929 H       1  UNL1        0.1424
@<TRIPOS>BOND
     1    21    22    1
     2    22    15    1
     3    15    16    1
     4    16    17    1
     5    17    18    1
     6    18    14    1
     7    14     7    1
     8     7     8   ar
     9     8     9   ar
    10     9    10   ar
    11    10     1    1
    12     1     2   ar
    13     2     3   ar
    14     3     4   ar
    15     4    23    1
    16    23    24    2
    17    23    25   am
    18    25    27    1
    19    27    28   ar
    20    28    29   ar
    21    29    30   ar
    22    30    31   ar
    23    31    32   ar
    24    32    33    1
    25     4     5   ar
    26     5     6   ar
    27    10    11   ar
    28    11    12    1
    29    11    13   ar
    30    18    19    1
    31    19    20    1
    32    20    15    1
    33    13     7   ar
    34     6     1   ar
    35    32    27   ar
    36    25    26    1
    37    33    34    1
    38    33    35    1
@<TRIPOS>MOLECULE
*****
 35 38 0 0 0
SMALL
GASTEIGER

@<TRIPOS>ATOM
      1 C         141.0788  144.0632  161.1648 C.ar    1  UNL1        0.0199
      2 C         141.7141  142.7478  161.5052 C.ar    1  UNL1        0.0017
      3 C         141.8876  142.3478  162.9404 C.ar    1  UNL1        0.0046
      4 C         141.4258  143.2632  164.0352 C.ar    1  UNL1        0.0537
      5 C         140.7905  144.5787  163.6948 C.ar    1  UNL1        0.0046
      6 C         140.6170  144.9787  162.2596 C.ar    1  UNL1        0.0017
      7 C         140.5582  145.2634  156.8591 C.ar    1  UNL1        0.0153
      8 C         141.6819  145.8405  157.6680 C.ar    1  UNL1        0.0960
      9 N         141.8554  145.4404  159.1032 N.ar    1  UNL1       -0.2419
     10 C         140.9052  144.4633  159.7295 C.ar    1  UNL1        0.1086
     11 C         139.7815  143.8862  158.9207 C.ar    1  UNL1        0.1574
     12 F         138.8313  142.9091  159.5471 F       1  UNL1       -0.2026
     13 C         139.6080  144.2862  157.4854 C.ar    1  UNL1        0.0298
     14 C         140.3847  145.6634  155.4239 C.3     1  UNL1        0.1008
     15 N         139.3431  149.9158  154.3836 N.3     1  UNL1       -0.2703
     16 C         138.7306  149.2671  155.5894 C.3     1  UNL1        0.0897
     17 C         139.0778  147.8497  155.9361 C.3     1  UNL1        0.0899
     18 N         140.0375  147.0809  155.0771 N.3     1  UNL1       -0.2665
     19 C         140.6500  147.7296  153.8713 C.3     1  UNL1        0.0899
     20 C         140.3028  149.1471  153.5245 C.3     1  UNL1        0.0897
     21 C         138.5383  152.2772  155.1089 C.3     1  UNL1        0.0188
     22 C         138.9959  151.3333  154.0368 C.3     1  UNL1        0.0722
     23 C         141.5994  142.8632  165.4705 C.2     1  UNL1        0.2495
     24 O         142.9720  142.5991  166.0147 O.2     1  UNL1       -0.2698
     25 N         140.4004  142.7272  166.3614 N.am    1  UNL1       -0.2794
     26 H         139.4995  142.9005  166.0042 H       1  UNL1        0.1552
     27 C         140.5740  142.3272  167.7966 C.ar    1  UNL1        0.0636
     28 C         140.3532  143.3328  168.8875 C.ar    1  UNL1        0.0159
     29 C         140.5268  142.9328  170.3227 C.ar    1  UNL1        0.0014
     30 C         140.9212  141.5271  170.6670 C.ar    1  UNL1        0.0013
     31 C         141.1419  140.5215  169.5762 C.ar    1  UNL1        0.0153
     32 C         140.9683  140.9215  168.1409 C.ar    1  UNL1        0.0552
     33 N         141.1891  139.9159  167.0501 N.pl3   1  UNL1       -0.3560
     34 H         141.4479  138.9933  167.2762 H       1  UNL1        0.1424
     35 H         141.0751  140.1784  166.1081 H       1  UNL1        0.1424
@<TRIPOS>BOND
     1    21    22    1
     2    22    15    1
     3    15    16    1
     4    16    17    1
     5    17    18    1
     6    18    14    1
     7    14     7    1
     8     7     8   ar
     9     8     9   ar
    10     9    10   ar
    11    10     1    1
    12     1     2   ar
    13     2     3   ar
    14     3     4   ar
    15     4    23    1
    16    23    24    2
    17    23    25   am
    18    25    27    1
    19    27    28   ar
    20    28    29   ar
    21    29    30   ar
    22    30    31   ar
    23    31    32   ar
    24    32    33    1
    25     4     5   ar
    26     5     6   ar
    27    10    11   ar
    28    11    12    1
    29    11    13   ar
    30    18    19    1
    31    19    20    1
    32    20    15    1
    33    13     7   ar
    34     6     1   ar
    35    32    27   ar
    36    25    26    1
    37    33    34    1
    38    33    35    1
@<TRIPOS>MOLECULE
*****
 35 38 0 0 0
SMALL
GASTEIGER

@<TRIPOS>ATOM
      1 C         139.7013  143.2251  160.7707 C.ar    1  UNL1        0.0199
      2 C         140.4741  144.4985  160.9469 C.ar    1  UNL1        0.0017
      3 C         140.7762  145.3629  159.7588 C.ar    1  UNL1        0.0046
      4 C         140.3056  144.9538  158.3946 C.ar    1  UNL1        0.0537
      5 C         139.5328  143.6803  158.2184 C.ar    1  UNL1        0.0046
      6 C         139.2306  142.8160  159.4065 C.ar    1  UNL1        0.0017
      7 C         138.7947  140.6318  164.3350 C.ar    1  UNL1        0.0153
      8 C         139.7710  140.1646  163.2964 C.ar    1  UNL1        0.0960
      9 N         140.0732  141.0290  162.1083 N.ar    1  UNL1       -0.2419
     10 C         139.3991  142.3607  161.9588 C.ar    1  UNL1        0.1086
     11 C         138.4228  142.8279  162.9973 C.ar    1  UNL1        0.1574
     12 F         137.7487  144.1595  162.8478 F       1  UNL1       -0.2026
     13 C         138.1206  141.9634  164.1854 C.ar    1  UNL1        0.0298
     14 C         138.4925  139.7674  165.5230 C.3     1  UNL1        0.1008
     15 N         141.1675  139.8981  169.1393 N.3     1  UNL1       -0.2703
     16 C         139.6772  139.9251  169.3074 C.3     1  UNL1        0.0897
     17 C         138.7856  139.8815  168.1019 C.3     1  UNL1        0.0899
     18 N         139.3842  139.8110  166.7284 N.3     1  UNL1       -0.2665
     19 C         140.8745  139.7840  166.5603 C.3     1  UNL1        0.0899
     20 C         141.7661  139.8276  167.7657 C.3     1  UNL1        0.0897
     21 C         143.2657  140.8328  170.3533 C.3     1  UNL1        0.0188
     22 C         142.0592  139.9417  170.3447 C.3     1  UNL1        0.0722
     23 C         140.6078  145.8182  157.2064 C.2     1  UNL1        0.2495
     24 O         142.0237  146.2119  156.9062 O.2     1  UNL1       -0.2698
     25 N         139.4941  146.2888  156.3187 N.am    1  UNL1       -0.2794
     26 H         138.5648  146.0304  156.5158 H       1  UNL1        0.1552
     27 C         139.7963  147.1532  155.1306 C.ar    1  UNL1        0.0636
     28 C         140.5510  146.5876  153.9641 C.ar    1  UNL1        0.0159
     29 C         140.8532  147.4519  152.7761 C.ar    1  UNL1        0.0014
     30 C         140.4009  148.8819  152.7545 C.ar    1  UNL1        0.0013
     31 C         139.6463  149.4476  153.9209 C.ar    1  UNL1        0.0153
     32 C         139.3440  148.5832  155.1090 C.ar    1  UNL1        0.0552
     33 N         138.5894  149.1488  156.2755 N.pl3   1  UNL1       -0.3560
     34 H         138.2925  150.0874  156.2613 H       1  UNL1        0.1424
     35 H         138.3910  148.5815  157.0552 H       1  UNL1        0.1424
@<TRIPOS>BOND
     1    21    22    1
     2    22    15    1
     3    15    16    1
     4    16    17    1
     5    17    18    1
     6    18    14    1
     7    14     7    1
     8     7     8   ar
     9     8     9   ar
    10     9    10   ar
    11    10     1    1
    12     1     2   ar
    13     2     3   ar
    14     3     4   ar
    15     4    23    1
    16    23    24    2
    17    23    25   am
    18    25    27    1
    19    27    28   ar
    20    28    29   ar
    21    29    30   ar
    22    30    31   ar
    23    31    32   ar
    24    32    33    1
    25     4     5   ar
    26     5     6   ar
    27    10    11   ar
    28    11    12    1
    29    11    13   ar
    30    18    19    1
    31    19    20    1
    32    20    15    1
    33    13     7   ar
    34     6     1   ar
    35    32    27   ar
    36    25    26    1
    37    33    34    1
    38    33    35    1
@<TRIPOS>MOLECULE
*****
 35 38 0 0 0
SMALL
GASTEIGER

@<TRIPOS>ATOM
      1 C         140.8796  139.3696  161.2947 C.ar    1  UNL1        0.0199
      2 C         140.0545  138.6483  162.3188 C.ar    1  UNL1        0.0017
      3 C         139.8239  139.2656  163.6662 C.ar    1  UNL1        0.0046
      4 C         140.4185  140.6042  163.9896 C.ar    1  UNL1        0.0537
      5 C         141.2437  141.3255  162.9655 C.ar    1  UNL1        0.0046
      6 C         141.4742  140.7082  161.6180 C.ar    1  UNL1        0.0017
      7 C         141.5715  137.5176  157.2521 C.ar    1  UNL1        0.0153
      8 C         142.7026  137.6248  158.2315 C.ar    1  UNL1        0.0960
      9 N         142.4719  138.2421  159.5790 N.ar    1  UNL1       -0.2419
     10 C         141.1102  138.7522  159.9471 C.ar    1  UNL1        0.1086
     11 C         139.9792  138.6451  158.9678 C.ar    1  UNL1        0.1574
     12 F         138.6175  139.1553  159.3359 F       1  UNL1       -0.2026
     13 C         140.2098  138.0278  157.6202 C.ar    1  UNL1        0.0298
     14 C         141.8021  136.9003  155.9046 C.3     1  UNL1        0.1008
     15 N         142.9595  132.5635  155.5848 N.3     1  UNL1       -0.2703
     16 C         141.5955  133.0099  155.1486 C.3     1  UNL1        0.0897
     17 C         141.2097  134.4555  155.2552 C.3     1  UNL1        0.0899
     18 N         142.1879  135.4547  155.7980 N.3     1  UNL1       -0.2665
     19 C         143.5518  135.0083  156.2343 C.3     1  UNL1        0.0899
     20 C         143.9376  133.5627  156.1277 C.3     1  UNL1        0.0897
     21 C         144.7856  130.7155  155.5938 C.3     1  UNL1        0.0188
     22 C         143.3453  131.1179  155.4782 C.3     1  UNL1        0.0722
     23 C         140.1879  141.2215  165.3371 C.2     1  UNL1        0.2495
     24 O         139.2069  142.3461  165.4889 O.2     1  UNL1       -0.2698
     25 N         140.9383  140.7143  166.5328 N.am    1  UNL1       -0.2794
     26 H         141.5822  139.9762  166.4331 H       1  UNL1        0.1552
     27 C         140.7077  141.3316  167.8802 C.ar    1  UNL1        0.0636
     28 C         141.5017  142.5328  168.3008 C.ar    1  UNL1        0.0159
     29 C         141.2711  143.1501  169.6482 C.ar    1  UNL1        0.0014
     30 C         140.2464  142.5663  170.5752 C.ar    1  UNL1        0.0013
     31 C         139.4524  141.3652  170.1547 C.ar    1  UNL1        0.0153
     32 C         139.6830  140.7479  168.8072 C.ar    1  UNL1        0.0552
     33 N         138.8890  139.5468  168.3868 N.pl3   1  UNL1       -0.3560
     34 H         138.2165  139.1636  168.9952 H       1  UNL1        0.1424
     35 H         139.0404  139.1416  167.5024 H       1  UNL1        0.1424
@<TRIPOS>BOND
     1    21    22    1
     2    22    15    1
     3    15    16    1
     4    16    17    1
     5    17    18    1
     6    18    14    1
     7    14     7    1
     8     7     8   ar
     9     8     9   ar
    10     9    10   ar
    11    10     1    1
    12     1     2   ar
    13     2     3   ar
    14     3     4   ar
    15     4    23    1
    16    23    24    2
    17    23    25   am
    18    25    27    1
    19    27    28   ar
    20    28    29   ar
    21    29    30   ar
    22    30    31   ar
    23    31    32   ar
    24    32    33    1
    25     4     5   ar
    26     5     6   ar
    27    10    11   ar
    28    11    12    1
    29    11    13   ar
    30    18    19    1
    31    19    20    1
    32    20    15    1
    33    13     7   ar
    34     6     1   ar
    35    32    27   ar
    36    25    26    1
    37    33    34    1
    38    33    35    1
@<TRIPOS>MOLECULE
*****
 35 38 0 0 0
SMALL
GASTEIGER

@<TRIPOS>ATOM
      1 C         141.1570  138.8384  162.0405 C.ar    1  UNL1        0.0199
      2 C         140.9850  137.7675  163.0765 C.ar    1  UNL1        0.0017
      3 C         140.7833  138.1412  164.5151 C.ar    1  UNL1        0.0046
      4 C         140.7536  139.5859  164.9176 C.ar    1  UNL1        0.0537
      5 C         140.9255  140.6568  163.8815 C.ar    1  UNL1        0.0046
      6 C         141.1272  140.2831  162.4430 C.ar    1  UNL1        0.0017
      7 C         141.7621  137.7172  157.7245 C.ar    1  UNL1        0.0153
      8 C         140.4544  138.3002  158.1718 C.ar    1  UNL1        0.0960
      9 N         140.2527  138.6739  159.6104 N.ar    1  UNL1       -0.2419
     10 C         141.3587  138.4646  160.6018 C.ar    1  UNL1        0.1086
     11 C         142.6664  137.8817  160.1546 C.ar    1  UNL1        0.1574
     12 F         143.7725  137.6724  161.1460 F       1  UNL1       -0.2026
     13 C         142.8682  137.5079  158.7159 C.ar    1  UNL1        0.0298
     14 C         141.9638  137.3435  156.2859 C.3     1  UNL1        0.1008
     15 N         142.7286  133.0539  155.1614 N.3     1  UNL1       -0.2703
     16 C         141.3781  133.6620  154.9244 C.3     1  UNL1        0.0897
     17 C         141.1232  135.0919  155.2993 C.3     1  UNL1        0.0899
     18 N         142.2187  135.9136  155.9111 N.3     1  UNL1       -0.2665
     19 C         143.5693  135.3055  156.1481 C.3     1  UNL1        0.0899
     20 C         143.8242  133.8756  155.7733 C.3     1  UNL1        0.0897
     21 C         143.3948  131.2776  153.3863 C.3     1  UNL1        0.0188
     22 C         142.9836  131.6240  154.7866 C.3     1  UNL1        0.0722
     23 C         140.5518  139.9597  166.3563 C.2     1  UNL1        0.2495
     24 O         139.3453  139.4649  167.0976 O.2     1  UNL1       -0.2698
     25 N         141.5566  140.8281  167.0536 N.am    1  UNL1       -0.2794
     26 H         142.3485  141.1528  166.5670 H       1  UNL1        0.1552
     27 C         141.3548  141.2018  168.4922 C.ar    1  UNL1        0.0636
     28 C         140.5095  142.3890  168.8472 C.ar    1  UNL1        0.0159
     29 C         140.3077  142.7627  170.2858 C.ar    1  UNL1        0.0014
     30 C         140.9513  141.9493  171.3694 C.ar    1  UNL1        0.0013
     31 C         141.7966  140.7621  171.0144 C.ar    1  UNL1        0.0153
     32 C         141.9984  140.3884  169.5757 C.ar    1  UNL1        0.0552
     33 N         142.8437  139.2012  169.2207 N.pl3   1  UNL1       -0.3560
     34 H         143.2661  138.6673  169.9319 H       1  UNL1        0.1424
     35 H         142.9761  138.9559  168.2765 H       1  UNL1        0.1424
@<TRIPOS>BOND
     1    21    22    1
     2    22    15    1
     3    15    16    1
     4    16    17    1
     5    17    18    1
     6    18    14    1
     7    14     7    1
     8     7     8   ar
     9     8     9   ar
    10     9    10   ar
    11    10     1    1
    12     1     2   ar
    13     2     3   ar
    14     3     4   ar
    15     4    23    1
    16    23    24    2
    17    23    25   am
    18    25    27    1
    19    27    28   ar
    20    28    29   ar
    21    29    30   ar
    22    30    31   ar
    23    31    32   ar
    24    32    33    1
    25     4     5   ar
    26     5     6   ar
    27    10    11   ar
    28    11    12    1
    29    11    13   ar
    30    18    19    1
    31    19    20    1
    32    20    15    1
    33    13     7   ar
    34     6     1   ar
    35    32    27   ar
    36    25    26    1
    37    33    34    1
    38    33    35    1
@<TRIPOS>MOLECULE
*****
 35 38 0 0 0
SMALL
GASTEIGER

@<TRIPOS>ATOM
      1 C         143.3856  142.0496  161.9274 C.ar    1  UNL1        0.0199
      2 C         144.4675  142.5877  162.8161 C.ar    1  UNL1        0.0017
      3 C         144.2601  142.6435  164.3006 C.ar    1  UNL1        0.0046
      4 C         142.9707  142.1611  164.8964 C.ar    1  UNL1        0.0537
      5 C         141.8888  141.6230  164.0077 C.ar    1  UNL1        0.0046
      6 C         142.0962  141.5673  162.5232 C.ar    1  UNL1        0.0017
      7 C         144.0077  141.8823  157.4737 C.ar    1  UNL1        0.0153
      8 C         143.7352  143.1962  158.1441 C.ar    1  UNL1        0.0960
      9 N         143.5278  143.2519  159.6286 N.ar    1  UNL1       -0.2419
     10 C         143.5929  141.9938  160.4428 C.ar    1  UNL1        0.1086
     11 C         143.8654  140.6799  159.7724 C.ar    1  UNL1        0.1574
     12 F         143.9306  139.4218  160.5866 F       1  UNL1       -0.2026
     13 C         144.0728  140.6241  158.2878 C.ar    1  UNL1        0.0298
     14 C         144.2150  141.8265  155.9891 C.3     1  UNL1        0.1008
     15 N         148.3806  141.9638  154.2924 N.3     1  UNL1       -0.2703
     16 C         147.2036  141.7944  153.3781 C.3     1  UNL1        0.0897
     17 C         145.8151  141.7487  153.9437 C.3     1  UNL1        0.0899
     18 N         145.6036  141.8723  155.4236 N.3     1  UNL1       -0.2665
     19 C         146.7806  142.0416  156.3378 C.3     1  UNL1        0.0899
     20 C         148.1691  142.0874  155.7722 C.3     1  UNL1        0.0897
     21 C         150.9527  141.8164  154.6278 C.3     1  UNL1        0.0188
     22 C         149.7692  142.0095  153.7268 C.3     1  UNL1        0.0722
     23 C         142.7634  142.2169  166.3810 C.2     1  UNL1        0.2495
     24 O         143.7845  142.8809  167.2565 O.2     1  UNL1       -0.2698
     25 N         141.5349  141.6088  166.9901 N.am    1  UNL1       -0.2794
     26 H         140.8647  141.1730  166.4155 H       1  UNL1        0.1552
     27 C         141.3276  141.6646  168.4746 C.ar    1  UNL1        0.0636
     28 C         140.4594  142.7326  169.0710 C.ar    1  UNL1        0.0159
     29 C         140.2521  142.7884  170.5556 C.ar    1  UNL1        0.0014
     30 C         140.9129  141.7763  171.4437 C.ar    1  UNL1        0.0013
     31 C         141.7810  140.7083  170.8474 C.ar    1  UNL1        0.0153
     32 C         141.9884  140.6524  169.3628 C.ar    1  UNL1        0.0552
     33 N         142.8566  139.5845  168.7664 N.pl3   1  UNL1       -0.3560
     34 H         143.2903  138.9201  169.3493 H       1  UNL1        0.1424
     35 H         142.9927  139.5478  167.7920 H       1  UNL1        0.1424
@<TRIPOS>BOND
     1    21    22    1
     2    22    15    1
     3    15    16    1
     4    16    17    1
     5    17    18    1
     6    18    14    1
     7    14     7    1
     8     7     8   ar
     9     8     9   ar
    10     9    10   ar
    11    10     1    1
    12     1     2   ar
    13     2     3   ar
    14     3     4   ar
    15     4    23    1
    16    23    24    2
    17    23    25   am
    18    25    27    1
    19    27    28   ar
    20    28    29   ar
    21    29    30   ar
    22    30    31   ar
    23    31    32   ar
    24    32    33    1
    25     4     5   ar
    26     5     6   ar
    27    10    11   ar
    28    11    12    1
    29    11    13   ar
    30    18    19    1
    31    19    20    1
    32    20    15    1
    33    13     7   ar
    34     6     1   ar
    35    32    27   ar
    36    25    26    1
    37    33    34    1
    38    33    35    1
@<TRIPOS>MOLECULE
*****
 35 38 0 0 0
SMALL
GASTEIGER

@<TRIPOS>ATOM
      1 C         142.9643  140.6984  159.9516 C.ar    1  UNL1        0.0199
      2 C         143.0062  139.7032  158.8302 C.ar    1  UNL1        0.0017
      3 C         143.8750  139.9572  157.6341 C.ar    1  UNL1        0.0046
      4 C         144.7019  141.2064  157.5595 C.ar    1  UNL1        0.0537
      5 C         144.6600  142.2017  158.6809 C.ar    1  UNL1        0.0046
      6 C         143.7913  141.9477  159.8770 C.ar    1  UNL1        0.0017
      7 C         140.3579  139.9366  163.5400 C.ar    1  UNL1        0.0153
      8 C         139.8316  140.7397  162.3876 C.ar    1  UNL1        0.0960
      9 N         140.7004  140.9937  161.1916 N.ar    1  UNL1       -0.2419
     10 C         142.0955  140.4445  161.1478 C.ar    1  UNL1        0.1086
     11 C         142.6219  139.6413  162.3001 C.ar    1  UNL1        0.1574
     12 F         144.0171  139.0921  162.2563 F       1  UNL1       -0.2026
     13 C         141.7531  139.3874  163.4963 C.ar    1  UNL1        0.0298
     14 C         139.4891  139.6826  164.7361 C.3     1  UNL1        0.1008
     15 N         140.3019  141.8329  168.6047 N.3     1  UNL1       -0.2703
     16 C         139.6400  140.4870  168.6195 C.3     1  UNL1        0.0897
     17 C         139.3691  139.7702  167.3299 C.3     1  UNL1        0.0899
     18 N         139.7600  140.3994  166.0256 N.3     1  UNL1       -0.2665
     19 C         140.4219  141.7454  166.0109 C.3     1  UNL1        0.0899
     20 C         140.6928  142.4621  167.3004 C.3     1  UNL1        0.0897
     21 C         140.3531  144.0304  169.9897 C.3     1  UNL1        0.0188
     22 C         140.5728  142.5497  169.8942 C.3     1  UNL1        0.0722
     23 C         145.5707  141.4604  156.3633 C.2     1  UNL1        0.2495
     24 O         145.4411  140.5951  155.1449 O.2     1  UNL1       -0.2698
     25 N         146.5691  142.5796  156.3855 N.am    1  UNL1       -0.2794
     26 H         146.6542  143.1475  157.1852 H       1  UNL1        0.1552
     27 C         147.4378  142.8335  155.1894 C.ar    1  UNL1        0.0636
     28 C         148.7458  142.1132  155.0459 C.ar    1  UNL1        0.0159
     29 C         149.6145  142.3671  153.8498 C.ar    1  UNL1        0.0014
     30 C         149.1754  143.3413  152.7971 C.ar    1  UNL1        0.0013
     31 C         147.8676  144.0616  152.9406 C.ar    1  UNL1        0.0153
     32 C         146.9987  143.8077  154.1368 C.ar    1  UNL1        0.0552
     33 N         145.6909  144.5280  154.2802 N.pl3   1  UNL1       -0.3560
     34 H         145.4027  145.1674  153.5893 H       1  UNL1        0.1424
     35 H         145.1207  144.3614  155.0653 H       1  UNL1        0.1424
@<TRIPOS>BOND
     1    21    22    1
     2    22    15    1
     3    15    16    1
     4    16    17    1
     5    17    18    1
     6    18    14    1
     7    14     7    1
     8     7     8   ar
     9     8     9   ar
    10     9    10   ar
    11    10     1    1
    12     1     2   ar
    13     2     3   ar
    14     3     4   ar
    15     4    23    1
    16    23    24    2
    17    23    25   am
    18    25    27    1
    19    27    28   ar
    20    28    29   ar
    21    29    30   ar
    22    30    31   ar
    23    31    32   ar
    24    32    33    1
    25     4     5   ar
    26     5     6   ar
    27    10    11   ar
    28    11    12    1
    29    11    13   ar
    30    18    19    1
    31    19    20    1
    32    20    15    1
    33    13     7   ar
    34     6     1   ar
    35    32    27   ar
    36    25    26    1
    37    33    34    1
    38    33    35    1
@<TRIPOS>MOLECULE
*****
 35 38 0 0 0
SMALL
GASTEIGER

@<TRIPOS>ATOM
      1 C         143.3842  140.9017  161.5668 C.ar    1  UNL1        0.0199
      2 C         142.0322  141.2106  162.1382 C.ar    1  UNL1        0.0017
      3 C         141.7756  141.0185  163.6035 C.ar    1  UNL1        0.0046
      4 C         142.8710  140.5174  164.4974 C.ar    1  UNL1        0.0537
      5 C         144.2230  140.2085  163.9260 C.ar    1  UNL1        0.0046
      6 C         144.4796  140.4006  162.4607 C.ar    1  UNL1        0.0017
      7 C         144.1543  141.4779  157.1707 C.ar    1  UNL1        0.0153
      8 C         144.1547  140.0974  157.7576 C.ar    1  UNL1        0.0960
      9 N         143.8980  139.9054  159.2230 N.ar    1  UNL1       -0.2419
     10 C         143.6409  141.0937  160.1014 C.ar    1  UNL1        0.1086
     11 C         143.6405  142.4741  159.5146 C.ar    1  UNL1        0.1574
     12 F         143.3834  143.6625  160.3930 F       1  UNL1       -0.2026
     13 C         143.8972  142.6662  158.0492 C.ar    1  UNL1        0.0298
     14 C         144.4110  141.6699  155.7054 C.3     1  UNL1        0.1008
     15 N         148.6351  141.8104  154.1605 N.3     1  UNL1       -0.2703
     16 C         148.3646  142.0046  155.6230 C.3     1  UNL1        0.0897
     17 C         146.9565  141.9578  156.1380 C.3     1  UNL1        0.0899
     18 N         145.8190  141.7167  155.1904 N.3     1  UNL1       -0.2665
     19 C         146.0896  141.5225  153.7279 C.3     1  UNL1        0.0899
     20 C         147.4976  141.5693  153.2129 C.3     1  UNL1        0.0897
     21 C         151.1861  142.0289  154.6016 C.3     1  UNL1        0.0188
     22 C         150.0432  141.8572  153.6455 C.3     1  UNL1        0.0722
     23 C         142.6143  140.3253  165.9628 C.2     1  UNL1        0.2495
     24 O         143.1892  139.1373  166.6755 O.2     1  UNL1       -0.2698
     25 N         141.7827  141.3213  166.7154 N.am    1  UNL1       -0.2794
     26 H         141.4053  142.1011  166.2477 H       1  UNL1        0.1552
     27 C         141.5260  141.1292  168.1807 C.ar    1  UNL1        0.0636
     28 C         140.3624  140.2992  168.6359 C.ar    1  UNL1        0.0159
     29 C         140.1057  140.1070  170.1012 C.ar    1  UNL1        0.0014
     30 C         141.0127  140.7449  171.1114 C.ar    1  UNL1        0.0013
     31 C         142.1763  141.5748  170.6564 C.ar    1  UNL1        0.0153
     32 C         142.4330  141.7670  169.1910 C.ar    1  UNL1        0.0552
     33 N         143.5966  142.5970  168.7359 N.pl3   1  UNL1       -0.3560
     34 H         144.1919  143.0156  169.3990 H       1  UNL1        0.1424
     35 H         143.7651  142.7231  167.7742 H       1  UNL1        0.1424
@<TRIPOS>BOND
     1    21    22    1
     2    22    15    1
     3    15    16    1
     4    16    17    1
     5    17    18    1
     6    18    14    1
     7    14     7    1
     8     7     8   ar
     9     8     9   ar
    10     9    10   ar
    11    10     1    1
    12     1     2   ar
    13     2     3   ar
    14     3     4   ar
    15     4    23    1
    16    23    24    2
    17    23    25   am
    18    25    27    1
    19    27    28   ar
    20    28    29   ar
    21    29    30   ar
    22    30    31   ar
    23    31    32   ar
    24    32    33    1
    25     4     5   ar
    26     5     6   ar
    27    10    11   ar
    28    11    12    1
    29    11    13   ar
    30    18    19    1
    31    19    20    1
    32    20    15    1
    33    13     7   ar
    34     6     1   ar
    35    32    27   ar
    36    25    26    1
    37    33    34    1
    38    33    35    1
@<TRIPOS>MOLECULE
*****
 35 38 0 0 0
SMALL
GASTEIGER

@<TRIPOS>ATOM
      1 C         141.8239  139.1633  161.6610 C.ar    1  UNL1        0.0199
      2 C         141.2335  140.4126  162.2446 C.ar    1  UNL1        0.0017
      3 C         141.3287  140.6690  163.7194 C.ar    1  UNL1        0.0046
      4 C         142.0144  139.6762  164.6106 C.ar    1  UNL1        0.0537
      5 C         142.6048  138.4269  164.0269 C.ar    1  UNL1        0.0046
      6 C         142.5095  138.1704  162.5521 C.ar    1  UNL1        0.0017
      7 C         141.5382  138.3938  157.2364 C.ar    1  UNL1        0.0153
      8 C         142.8644  138.7196  157.8570 C.ar    1  UNL1        0.0960
      9 N         142.9596  138.9761  159.3318 N.ar    1  UNL1       -0.2419
     10 C         141.7286  138.9068  160.1861 C.ar    1  UNL1        0.1086
     11 C         140.4024  138.5810  159.5656 C.ar    1  UNL1        0.1574
     12 F         139.1715  138.5117  160.4199 F       1  UNL1       -0.2026
     13 C         140.3072  138.3245  158.0907 C.ar    1  UNL1        0.0298
     14 C         141.4430  138.1373  155.7616 C.3     1  UNL1        0.1008
     15 N         142.1833  134.0038  154.1442 N.3     1  UNL1       -0.2703
     16 C         142.0546  135.1652  153.2038 C.3     1  UNL1        0.0897
     17 C         141.8079  136.5430  153.7429 C.3     1  UNL1        0.0899
     18 N         141.6897  136.7595  155.2225 N.3     1  UNL1       -0.2665
     19 C         141.8184  135.5980  156.1629 C.3     1  UNL1        0.0899
     20 C         142.0652  134.2202  155.6238 C.3     1  UNL1        0.0897
     21 C         143.3728  131.7004  154.3154 C.3     1  UNL1        0.0188
     22 C         142.4301  132.6259  153.6051 C.3     1  UNL1        0.0722
     23 C         142.1097  139.9327  166.0855 C.2     1  UNL1        0.2495
     24 O         142.9435  139.0347  166.9506 O.2     1  UNL1       -0.2698
     25 N         141.3711  141.0871  166.6952 N.am    1  UNL1       -0.2794
     26 H         140.8239  141.6765  166.1274 H       1  UNL1        0.1552
     27 C         141.4664  141.3436  168.1700 C.ar    1  UNL1        0.0636
     28 C         142.5290  142.2571  168.7053 C.ar    1  UNL1        0.0159
     29 C         142.6242  142.5135  170.1801 C.ar    1  UNL1        0.0014
     30 C         141.6570  141.8565  171.1197 C.ar    1  UNL1        0.0013
     31 C         140.5945  140.9430  170.5844 C.ar    1  UNL1        0.0153
     32 C         140.4992  140.6865  169.1095 C.ar    1  UNL1        0.0552
     33 N         139.4367  139.7730  168.5743 N.pl3   1  UNL1       -0.3560
     34 H         138.8018  139.3418  169.1909 H       1  UNL1        0.1424
     35 H         139.3741  139.6047  167.6063 H       1  UNL1        0.1424
@<TRIPOS>BOND
     1    21    22    1
     2    22    15    1
     3    15    16    1
     4    16    17    1
     5    17    18    1
     6    18    14    1
     7    14     7    1
     8     7     8   ar
     9     8     9   ar
    10     9    10   ar
    11    10     1    1
    12     1     2   ar
    13     2     3   ar
    14     3     4   ar
    15     4    23    1
    16    23    24    2
    17    23    25   am
    18    25    27    1
    19    27    28   ar
    20    28    29   ar
    21    29    30   ar
    22    30    31   ar
    23    31    32   ar
    24    32    33    1
    25     4     5   ar
    26     5     6   ar
    27    10    11   ar
    28    11    12    1
    29    11    13   ar
    30    18    19    1
    31    19    20    1
    32    20    15    1
    33    13     7   ar
    34     6     1   ar
    35    32    27   ar
    36    25    26    1
    37    33    34    1
    38    33    35    1
